
#######################################################################
#
#                 Cambridge Crystallographic Data Centre
#                                CCDC 
#
#######################################################################
#
# If this CIF has been generated from an entry in the Cambridge 
# Structural Database, then it will include bibliographic, chemical, 
# crystal, experimental, refinement or atomic coordinate data resulting 
# from the CCDC's data processing and validation procedures.
#
#######################################################################

data_ZURGUQ
_symmetry_cell_setting           triclinic
_symmetry_space_group_name_H-M   'P -1'
_symmetry_Int_Tables_number      2
_space_group_name_Hall           '-P 1'
loop_
_symmetry_equiv_pos_site_id
_symmetry_equiv_pos_as_xyz
1 x,y,z
2 -x,-y,-z
_cell_length_a                   10.0350(4)
_cell_length_b                   10.8066(4)
_cell_length_c                   13.6504(6)
_cell_angle_alpha                69.893(2)
_cell_angle_beta                 74.656(2)
_cell_angle_gamma                66.953(2)
_cell_volume                     1264.57
loop_
_atom_site_label
_atom_site_type_symbol
_atom_site_fract_x
_atom_site_fract_y
_atom_site_fract_z
C1 C 0.1242(3) 0.4248(3) 0.2885(3)
C2 C -0.0320(3) 0.4327(3) 0.3343(3)
C3 C 0.4131(3) 0.4117(3) 0.2069(2)
H1 H 0.5103 0.4041 0.1794
C4 C 0.4444(3) 0.4436(3) 0.3720(2)
C5 C 0.1798(3) 0.4125(3) 0.1867(3)
H2 H 0.1224 0.4074 0.1457
C6 C 0.3225(3) 0.4080(3) 0.1479(2)
C7 C 0.2098(3) 0.4358(3) 0.3480(3)
H3 H 0.1700 0.4491 0.4148
C8 C 0.5510(4) 0.7237(4) 0.2609(3)
H4 H 0.5306 0.6639 0.2361
C9 C -0.0953(4) 1.0747(4) -0.3430(3)
C10 C 0.3553(3) 0.4272(3) 0.3080(2)
C11 C 0.3287(4) 1.0416(4) 0.0896(3)
C12 C -0.1475(4) 1.2058(4) -0.4105(3)
H5 H -0.1300 1.2794 -0.4016
C13 C 0.0615(4) 1.1084(4) -0.1341(3)
C14 C 0.2392(4) 1.0597(4) 0.0109(3)
C15 C 0.6664(4) 0.7551(4) 0.3692(3)
H6 H 0.7263 0.7182 0.4211
C16 C 0.4914(4) 0.8664(4) 0.2173(3)
C17 C -0.0426(5) 1.1438(4) -0.2083(3)
C18 C 0.1561(5) 0.9769(4) -0.0963(3)
H7 H 0.1618 0.9034 -0.1198
C19 C 0.5230(5) 0.9558(4) 0.2529(3)
H8 H 0.4850 1.0521 0.2262
C20 C 0.2428(4) 0.9529(4) -0.0239(3)
H9 H 0.3048 0.8628 0.0020
C21 C -0.1183(4) 0.9643(4) -0.3575(3)
H10 H -0.0833 0.8742 -0.3145
C22 C 0.1470(6) 1.1927(4) -0.0299(4)
H11 H 0.1447 1.2672 -0.0094
C23 C 0.6130(5) 0.8970(4) 0.3295(3)
H12 H 0.6375 0.9543 0.3543
C24 C 0.0590(6) 1.2156(4) -0.1003(4)
H13 H -0.0037 1.3054 -0.1258
C25 C -0.2448(4) 1.1256(4) -0.5002(3)
H14 H -0.2968 1.1423 -0.5532
C26 C -0.1946(5) 0.9916(4) -0.4377(3)
H15 H -0.2118 0.9195 -0.4492
Co1 Co 0.70819(4) 0.44806(5) 0.41691(3)
N1 N 0.6356(3) 0.6673(3) 0.3362(2)
N2 N 0.4022(4) 0.9100(3) 0.1396(3)
H16 H 0.3935 0.8447 0.1220
N3 N -0.0141(3) 1.0507(3) -0.2644(2)
H17 H 0.0572 0.9733 -0.2510
N4 N -0.2220(3) 1.2330(3) -0.4880(2)
N5 N 0.3798(3) 0.4014(3) 0.0387(2)
O1 O 0.3787(3) 0.4981(3) 0.44589(19)
O2 O 0.5819(2) 0.4054(3) 0.34603(19)
O3 O -0.0858(2) 0.4632(3) 0.42033(18)
O4 O -0.1056(3) 0.4081(3) 0.2864(2)
O5 O 0.2929(3) 0.4462(3) -0.0233(2)
O6 O 0.5135(3) 0.3525(3) 0.0141(2)
O7 O 0.3337(4) 1.1414(3) 0.1083(3)
O8 O -0.1492(4) 1.2506(3) -0.2170(2)
Co1_2 Co -0.29181(4) 0.44806(5) 0.41691(3)
Co1_3 Co -0.29181(4) 1.44806(5) -0.58309(3)
Co1A Co 0.29181(4) 0.55194(5) 0.58309(3)
N4_2 N 0.7780(3) 0.2330(3) 0.5120(2)
O1A O 0.6213(3) 0.5019(3) 0.55411(19)
O3_2 O 0.9142(2) 0.4632(3) 0.42033(18)
O4_2 O 0.8944(3) 0.4081(3) 0.2864(2)
O9 O 0.8237(5) 0.2417(4) 0.2103(4)
H18 H 0.7965 0.3134 0.2295
H19 H 0.8980 0.2583 0.1660
loop_
_geom_bond_atom_site_label_1
_geom_bond_atom_site_label_2
_geom_bond_site_symmetry_1
_geom_bond_site_symmetry_2
C1 C2 1_555 1_555
C2 O3 1_555 1_555
C3 H1 1_555 1_555
C4 C10 1_555 1_555
C5 C1 1_555 1_555
H2 C5 1_555 1_555
C6 C3 1_555 1_555
C7 C1 1_555 1_555
H3 C7 1_555 1_555
C8 H4 1_555 1_555
C9 C12 1_555 1_555
C10 C3 1_555 1_555
C11 C14 1_555 1_555
C12 H5 1_555 1_555
C13 C17 1_555 1_555
C14 C20 1_555 1_555
C15 H6 1_555 1_555
C16 C8 1_555 1_555
C17 N3 1_555 1_555
C18 C13 1_555 1_555
H7 C18 1_555 1_555
C19 C16 1_555 1_555
H8 C19 1_555 1_555
C20 C18 1_555 1_555
H9 C20 1_555 1_555
C21 C9 1_555 1_555
H10 C21 1_555 1_555
C22 C14 1_555 1_555
H11 C22 1_555 1_555
C23 C15 1_555 1_555
H12 C23 1_555 1_555
C24 C13 1_555 1_555
H13 C24 1_555 1_555
C25 H14 1_555 1_555
C26 C21 1_555 1_555
H15 C26 1_555 1_555
Co1 N1 1_555 1_555
N1 C8 1_555 1_555
N2 C11 1_555 1_555
H16 N2 1_555 1_555
N3 C9 1_555 1_555
H17 N3 1_555 1_555
N4 C12 1_555 1_555
N5 C6 1_555 1_555
O1 C4 1_555 1_555
O2 C4 1_555 1_555
O3 Co1_2 1_555 1_555
O4 C2 1_555 1_555
O5 N5 1_555 1_555
O6 N5 1_555 1_555
O7 C11 1_555 1_555
O8 C17 1_555 1_555
O9 H18 1_555 1_555
H19 O9 1_555 1_555
Co1_2 O4 1_555 1_555
Co1_3 N4 1_555 1_555
Co1A O1 1_555 1_555
N4_2 Co1 1_555 1_555
O1A Co1 1_555 1_555
O3_2 Co1 1_555 1_555
O4_2 Co1 1_555 1_555
C5 C6 1_555 1_555
C7 C10 1_555 1_555
C15 N1 1_555 1_555
C16 N2 1_555 1_555
C19 C23 1_555 1_555
C22 C24 1_555 1_555
C25 C26 1_555 1_555
C25 N4 1_555 1_555
Co1 O2 1_555 1_555

#END
