
#######################################################################
#
#                 Cambridge Crystallographic Data Centre
#                                CCDC 
#
#######################################################################
#
# If this CIF has been generated from an entry in the Cambridge 
# Structural Database, then it will include bibliographic, chemical, 
# crystal, experimental, refinement or atomic coordinate data resulting 
# from the CCDC's data processing and validation procedures.
#
#######################################################################

data_ZURLAB
_symmetry_cell_setting           monoclinic
_symmetry_space_group_name_H-M   'P 21/c'
_symmetry_Int_Tables_number      14
_space_group_name_Hall           '-P 2ybc'
loop_
_symmetry_equiv_pos_site_id
_symmetry_equiv_pos_as_xyz
1 x,y,z
2 -x,1/2+y,1/2-z
3 -x,-y,-z
4 x,1/2-y,1/2+z
_cell_length_a                   10.1318(6)
_cell_length_b                   16.1752(10)
_cell_length_c                   23.1015(14)
_cell_angle_alpha                90
_cell_angle_beta                 93.4110(10)
_cell_angle_gamma                90
_cell_volume                     3779.26
loop_
_atom_site_label
_atom_site_type_symbol
_atom_site_fract_x
_atom_site_fract_y
_atom_site_fract_z
Cd1 Cd 0.68919(3) 1.07902(2) 0.739856(15)
Cd2 Cd 0.33278(3) 0.99523(2) 0.770868(15)
N1 N 0.3703(4) 0.8580(2) 0.78506(18)
N2 N 0.1153(4) 1.0193(3) 0.77397(18)
C1 C -0.0062(5) 0.9722(3) 0.6830(2)
O1 O 0.6994(4) 0.8570(2) 0.73471(19)
N3 N 0.3501(4) 0.7207(2) 0.77365(18)
N4 N 0.6735(4) 1.0569(3) 0.63949(19)
C2 C 0.0795(5) 1.0572(3) 0.8239(2)
N5 N 0.6700(4) 1.0121(3) 0.3326(2)
O2 O 0.2975(4) 1.0494(2) 0.86470(17)
C3 C 0.0026(5) 1.0113(3) 0.7406(2)
O3 O 0.5344(3) 0.6077(2) 0.73982(16)
N6 N -0.1032(4) 1.0432(3) 0.76611(18)
C4 C 0.2915(5) 0.7910(3) 0.7896(2)
C5 C 0.4850(4) 0.8282(3) 0.7653(2)
C6 C -0.0199(6) 0.8879(3) 0.6769(2)
H1 H -0.0236 0.8552 0.7099
O4 O -0.2630(4) 1.1183(3) 0.84217(18)
C7 C 0.5935(5) 0.8855(3) 0.7534(2)
C8 C 0.1817(5) 1.0721(3) 0.8708(2)
C9 C 0.6727(5) 1.0278(3) 0.4541(2)
C10 C 0.6724(5) 1.0372(3) 0.5178(2)
C11 C 0.6667(6) 0.9820(3) 0.6145(2)
H2 H 0.6630 0.9358 0.6383
C12 C -0.0002(6) 1.0201(3) 0.6335(2)
H3 H 0.0086 1.0771 0.6370
C13 C -0.0215(6) 0.8995(3) 0.5739(2)
C14 C 0.6674(6) 0.9466(4) 0.3673(2)
H4 H 0.6653 0.8945 0.3503
C15 C 0.6648(6) 0.9698(4) 0.5555(2)
H5 H 0.6585 0.9165 0.5405
C16 C 0.1598(5) 0.7943(3) 0.8132(2)
C17 C 0.0596(6) 0.7391(4) 0.7935(3)
H6 H 0.0773 0.6995 0.7658
C18 C -0.0642(6) 0.7433(4) 0.8146(3)
H7 H -0.1294 0.7061 0.8016
C19 C -0.0070(6) 0.9845(3) 0.5792(2)
H8 H -0.0020 1.0172 0.5463
C20 C -0.0285(6) 0.8505(3) 0.6227(2)
H9 H -0.0387 0.7936 0.6193
C21 C 0.6675(6) 0.9513(4) 0.4268(2)
H10 H 0.6641 0.9032 0.4487
C22 C 0.1291(6) 0.8520(4) 0.8539(3)
H11 H 0.1940 0.8889 0.8676
C23 C 0.6774(6) 1.0865(3) 0.3586(2)
H12 H 0.6824 1.1334 0.3355
C24 C -0.0916(7) 0.8017(4) 0.8546(3)
C25 C 0.6778(6) 1.0965(4) 0.4175(2)
H13 H 0.6816 1.1494 0.4333
C26 C 0.6800(6) 1.1218(4) 0.6037(3)
H14 H 0.6855 1.1743 0.6200
C27 C 0.0044(6) 0.8567(4) 0.8751(3)
H15 H -0.0144 0.8962 0.9027
O5 O -0.2197(5) 0.8005(4) 0.8719(3)
C28 C 0.6792(6) 1.1151(4) 0.5447(3)
H16 H 0.6831 1.1625 0.5222
O6 O 0.6817(4) 0.7058(2) 0.72554(19)
C29 C 0.4729(5) 0.7436(3) 0.7580(2)
C30 C 0.5692(5) 0.6827(3) 0.7393(2)
C31 C -0.0540(5) 1.0720(3) 0.8185(2)
O7 O 0.1452(5) 1.1084(3) 0.91644(19)
C32 C -0.0361(11) 0.7862(5) 0.5077(3)
H17 H 0.0467 0.7610 0.5199
H18 H -0.0543 0.7766 0.4670
H19 H -0.1054 0.7625 0.5289
O8 O -0.0962(5) 1.1340(3) 0.90818(19)
O9 O -0.0294(5) 0.8713(3) 0.51819(18)
C33 C -0.1455(5) 1.1107(4) 0.8581(2)
C34 C -0.2624(9) 0.8663(7) 0.9053(5)
H20 H -0.2103 0.8683 0.9414
H21 H -0.3537 0.8586 0.9128
H22 H -0.2523 0.9172 0.8847
O10 O 0.5748(4) 0.9604(2) 0.76162(17)
H23 H -0.013(2) 1.132(9) 0.905(6)
Cd1_2 Cd -0.31081(3) 1.07902(2) 0.739856(15)
Cd1A Cd 0.31081(3) 0.57902(2) 0.760144(15)
Cd2A Cd 0.66722(3) 0.49523(2) 0.729132(15)
Cd2B Cd 0.66722(3) 1.00477(2) 0.229132(15)
N3A N 0.6499(4) 1.2207(2) 0.72635(18)
N5B N 0.3300(4) 0.9879(3) 0.6674(2)
O3A O 0.4656(3) 1.1077(2) 0.76018(16)
N6_2 N 0.8968(4) 1.0432(3) 0.76611(18)
O4_2 O 0.7370(4) 1.1183(3) 0.84217(18)
O11 O 0.383(2) 0.2537(15) 0.9364(10)
loop_
_geom_bond_atom_site_label_1
_geom_bond_atom_site_label_2
_geom_bond_site_symmetry_1
_geom_bond_site_symmetry_2
Cd1 N4 1_555 1_555
Cd2 N1 1_555 1_555
N1 C4 1_555 1_555
N2 Cd2 1_555 1_555
C1 C3 1_555 1_555
O1 C7 1_555 1_555
N3 C4 1_555 1_555
N4 C11 1_555 1_555
C2 N2 1_555 1_555
N5 C14 1_555 1_555
O2 Cd2 1_555 1_555
C3 N2 1_555 1_555
O3 C30 1_555 1_555
N6 C3 1_555 1_555
C4 C16 1_555 1_555
C5 N1 1_555 1_555
C6 C1 1_555 1_555
H1 C6 1_555 1_555
O4 C33 1_555 1_555
C7 C5 1_555 1_555
C8 C2 1_555 1_555
C9 C10 1_555 1_555
C10 C15 1_555 1_555
C11 H2 1_555 1_555
C12 C1 1_555 1_555
H3 C12 1_555 1_555
C13 C19 1_555 1_555
C14 H4 1_555 1_555
C15 C11 1_555 1_555
H5 C15 1_555 1_555
C16 C17 1_555 1_555
C17 H6 1_555 1_555
C18 C17 1_555 1_555
H7 C18 1_555 1_555
C19 C12 1_555 1_555
H8 C19 1_555 1_555
C20 C6 1_555 1_555
H9 C20 1_555 1_555
C21 C9 1_555 1_555
H10 C21 1_555 1_555
C22 C16 1_555 1_555
H11 C22 1_555 1_555
C23 N5 1_555 1_555
H12 C23 1_555 1_555
C24 C18 1_555 1_555
C25 C9 1_555 1_555
H13 C25 1_555 1_555
C26 N4 1_555 1_555
H14 C26 1_555 1_555
C27 C22 1_555 1_555
H15 C27 1_555 1_555
O5 C24 1_555 1_555
C28 C10 1_555 1_555
H16 C28 1_555 1_555
O6 C30 1_555 1_555
C29 N3 1_555 1_555
C30 C29 1_555 1_555
C31 C2 1_555 1_555
O7 C8 1_555 1_555
C32 H17 1_555 1_555
H18 C32 1_555 1_555
H19 C32 1_555 1_555
O8 C33 1_555 1_555
O9 C13 1_555 1_555
C33 C31 1_555 1_555
C34 O5 1_555 1_555
H20 C34 1_555 1_555
H21 C34 1_555 1_555
H22 C34 1_555 1_555
O10 Cd1 1_555 1_555
H23 O8 1_555 1_555
Cd1_2 N6 1_555 1_555
Cd1A N3 1_555 1_555
Cd2A O3 1_555 1_555
Cd2B N5 1_555 1_555
N3A Cd1 1_555 1_555
N5B Cd2 1_555 1_555
O3A Cd1 1_555 1_555
N6_2 Cd1 1_555 1_555
O4_2 Cd1 1_555 1_555
Cd2 O10 1_555 1_555
Cd2 O3A 1_555 1_555
O2 C8 1_555 1_555
O3 Cd1A 1_555 1_555
N6 C31 1_555 1_555
C5 C29 1_555 1_555
O4 Cd1_2 1_555 1_555
C7 O10 1_555 1_555
C13 C20 1_555 1_555
C14 C21 1_555 1_555
C23 C25 1_555 1_555
C24 C27 1_555 1_555
C26 C28 1_555 1_555
C32 O9 1_555 1_555

#END
