
#######################################################################
#
#                 Cambridge Crystallographic Data Centre
#                                CCDC 
#
#######################################################################
#
# If this CIF has been generated from an entry in the Cambridge 
# Structural Database, then it will include bibliographic, chemical, 
# crystal, experimental, refinement or atomic coordinate data resulting 
# from the CCDC's data processing and validation procedures.
#
#######################################################################

data_ZURQUU
_symmetry_cell_setting           triclinic
_symmetry_space_group_name_H-M   'P -1'
_symmetry_Int_Tables_number      2
_space_group_name_Hall           '-P 1'
loop_
_symmetry_equiv_pos_site_id
_symmetry_equiv_pos_as_xyz
1 x,y,z
2 -x,-y,-z
_cell_length_a                   8.149(2)
_cell_length_b                   9.577(1)
_cell_length_c                   9.865(2)
_cell_angle_alpha                81.03(1)
_cell_angle_beta                 94.08(2)
_cell_angle_gamma                106.08(1)
_cell_volume                     730.408
loop_
_atom_site_label
_atom_site_type_symbol
_atom_site_fract_x
_atom_site_fract_y
_atom_site_fract_z
N5 N 0.1093(14) 0.4905(12) 0.2333(11)
C11 C 0.2415(22) 0.4820(14) 0.3560(19)
C12 C 0.4204(17) 0.5088(13) 0.3404(14)
C13 C 0.5284(12) 0.5121(8) 0.4320(9)
C14 C 0.1901(21) 0.4563(16) 0.4933(16)
C15 C 0.7125(14) 0.5400(10) 0.4090(11)
C13A C 0.4716(12) 0.4879(8) 0.5680(9)
C15A C 0.2875(14) 0.4600(10) 0.5910(11)
C14A C 0.8099(21) 0.5437(16) 0.5067(16)
C12A C 0.5796(17) 0.4912(13) 0.6596(14)
C11A C 0.7585(22) 0.5180(14) 0.6440(19)
N5A N 0.8907(14) 0.5095(12) 0.7667(11)
Cd1 Cd 1.00000 1.00000 0.00000
Ni1 Ni 0.50000 0.50000 0.00000
N1 N 0.7693(7) 0.7838(5) 0.0147(6)
N2 N 0.7518(8) 0.3296(7) 0.1129(7)
N3 N 0.9446(6) 1.0612(5) 0.2158(5)
N4 N 0.8297(7) 1.1530(6) -0.1001(5)
C1 C 0.6690(7) 0.6759(6) 0.0097(6)
C2 C 0.6563(8) 0.3937(6) 0.0712(6)
C3 C 0.7943(10) 0.9677(8) 0.2878(7)
C4 C 0.7676(8) 1.0023(7) 0.4284(6)
C5 C 0.8302(10) 1.1423(7) 0.4652(7)
C6 C 0.7961(10) 1.1704(7) 0.5934(7)
C7 C 0.7013(7) 1.0603(7) 0.6864(6)
C8 C 0.6391(8) 0.9196(7) 0.6504(7)
C9 C 0.6735(8) 0.8925(7) 0.5219(7)
C10 C 0.6651(8) 1.0930(8) -0.1749(7)
H1 H 0.93160 1.16337 0.19872
H2 H 1.04647 1.05860 0.27805
H3 H 0.68129 0.97638 0.22262
H4 H 0.80417 0.85410 0.30076
H5 H 0.90578 1.22983 0.39404
H6 H 0.84469 1.27986 0.62010
H7 H 0.56439 0.83182 0.72178
H8 H 0.62534 0.78298 0.49514
H9 H 0.59184 0.99125 -0.11429
H10 H 0.59042 1.17416 -0.18977
H11 H 0.90275 1.23035 -0.16722
H12 H 0.80078 1.19951 -0.02428
N1A N 1.2307(7) 1.2162(5) -0.0147(6)
N3A N 1.0554(6) 0.9388(5) -0.2158(5)
N4A N 1.1703(7) 0.8470(6) 0.1001(5)
C1A C 0.3310(7) 0.3241(6) -0.0097(6)
C2A C 0.3437(8) 0.6063(6) -0.0712(6)
C10_2 C 0.6651(8) 1.0930(8) 0.8251(7)
C7_2 C 0.7013(7) 1.0603(7) -0.3136(6)
H1A H 1.06840 0.83663 -0.19872
H2A H 0.95353 0.94140 -0.27805
H11A H 1.09725 0.76965 0.16722
H12A H 1.19922 0.80049 0.02428
N1A_2 N 0.2307(7) 0.2162(5) -0.0147(6)
N2A N 0.2482(8) 0.6704(7) -0.1129(7)
N4_2 N 0.8297(7) 1.1530(6) 0.8999(5)
H9_2 H 0.59184 0.99125 0.88571
H10_2 H 0.59042 1.17416 0.81023
C6_2 C 0.7961(10) 1.1704(7) -0.4066(7)
C8_2 C 0.6391(8) 0.9196(7) -0.3496(7)
Cd1_2 Cd 0.00000 0.00000 0.00000
Cd1_3 Cd 1.00000 1.00000 1.00000
H11_2 H 0.90275 1.23035 0.83278
H12_2 H 0.80078 1.19951 0.97572
C5_2 C 0.8302(10) 1.1423(7) -0.5348(7)
H6_2 H 0.84469 1.27986 -0.37990
C9_2 C 0.6735(8) 0.8925(7) -0.4781(7)
H7_2 H 0.56439 0.83182 -0.27822
C4_2 C 0.7676(8) 1.0023(7) -0.5716(6)
H5_2 H 0.90578 1.22983 -0.60596
H8_2 H 0.62534 0.78298 -0.50486
C3_2 C 0.7943(10) 0.9677(8) -0.7122(7)
N3_2 N 0.9446(6) 1.0612(5) -0.7842(5)
H3_2 H 0.68129 0.97638 -0.77738
H4_2 H 0.80417 0.85410 -0.69924
Cd1_4 Cd 1.00000 1.00000 -1.00000
H1_2 H 0.93160 1.16337 -0.80128
H2_2 H 1.04647 1.05860 -0.72195
loop_
_geom_bond_atom_site_label_1
_geom_bond_atom_site_label_2
_geom_bond_site_symmetry_1
_geom_bond_site_symmetry_2
Cd1 N1 1_555 1_555
Ni1 C1 1_555 1_555
N1 C1 1_555 1_555
N2 C2 1_555 1_555
N3 Cd1 1_555 1_555
N4 Cd1 1_555 1_555
C2 Ni1 1_555 1_555
C3 N3 1_555 1_555
C4 C3 1_555 1_555
C5 C4 1_555 1_555
C6 C5 1_555 1_555
C7 C6 1_555 1_555
C8 C7 1_555 1_555
C9 C4 1_555 1_555
C10 N4 1_555 1_555
N5 C11 1_555 1_555
C11 C12 1_555 1_555
C12 C13 1_555 1_555
C13 C15 1_555 1_555
C14 C11 1_555 1_555
C15 C14A 1_555 1_555
H1 N3 1_555 1_555
H2 N3 1_555 1_555
H3 C3 1_555 1_555
H4 C3 1_555 1_555
H5 C5 1_555 1_555
H6 C6 1_555 1_555
H7 C8 1_555 1_555
H8 C9 1_555 1_555
H9 C10 1_555 1_555
H10 C10 1_555 1_555
H11 N4 1_555 1_555
H12 N4 1_555 1_555
N1A Cd1 1_555 1_555
N3A Cd1 1_555 1_555
N4A Cd1 1_555 1_555
C1A Ni1 1_555 1_555
C2A Ni1 1_555 1_555
C10_2 C7 1_555 1_555
C7_2 C10 1_555 1_555
C13A C13 1_555 1_555
C15A C14 1_555 1_555
C14A C11A 1_555 1_555
H1A N3A 1_555 1_555
H2A N3A 1_555 1_555
H11A N4A 1_555 1_555
H12A N4A 1_555 1_555
N1A_2 C1A 1_555 1_555
N2A C2A 1_555 1_555
N4_2 C10_2 1_555 1_555
H9_2 C10_2 1_555 1_555
H10_2 C10_2 1_555 1_555
C6_2 C7_2 1_555 1_555
C8_2 C7_2 1_555 1_555
C12A C13A 1_555 1_555
C11A C12A 1_555 1_555
Cd1_2 N1A_2 1_555 1_555
Cd1_3 N4_2 1_555 1_555
H11_2 N4_2 1_555 1_555
H12_2 N4_2 1_555 1_555
C5_2 C6_2 1_555 1_555
H6_2 C6_2 1_555 1_555
C9_2 C8_2 1_555 1_555
H7_2 C8_2 1_555 1_555
N5A C11A 1_555 1_555
C4_2 C5_2 1_555 1_555
H5_2 C5_2 1_555 1_555
H8_2 C9_2 1_555 1_555
C3_2 C4_2 1_555 1_555
N3_2 C3_2 1_555 1_555
H3_2 C3_2 1_555 1_555
H4_2 C3_2 1_555 1_555
Cd1_4 N3_2 1_555 1_555
H1_2 N3_2 1_555 1_555
H2_2 N3_2 1_555 1_555
C8 C9 1_555 1_555
C13A C15A 1_555 1_555
C9_2 C4_2 1_555 1_555

#END
