
#######################################################################
#
#                 Cambridge Crystallographic Data Centre
#                                CCDC 
#
#######################################################################
#
# If this CIF has been generated from an entry in the Cambridge 
# Structural Database, then it will include bibliographic, chemical, 
# crystal, experimental, refinement or atomic coordinate data resulting 
# from the CCDC's data processing and validation procedures.
#
#######################################################################

data_ZURRIN
_symmetry_cell_setting           monoclinic
_symmetry_space_group_name_H-M   'C 2/c'
_symmetry_Int_Tables_number      15
_space_group_name_Hall           '-C 2yn'
loop_
_symmetry_equiv_pos_site_id
_symmetry_equiv_pos_as_xyz
1 x,y,z
2 -x,y,1/2-z
3 1/2+x,1/2+y,z
4 1/2-x,1/2+y,1/2-z
5 -x,-y,-z
6 x,-y,1/2+z
7 1/2-x,1/2-y,-z
8 1/2+x,1/2-y,1/2+z
_cell_length_a                   19.820(2)
_cell_length_b                   7.738(2)
_cell_length_c                   31.213(1)
_cell_angle_alpha                90
_cell_angle_beta                 109.138(5)
_cell_angle_gamma                90
_cell_volume                     4522.48
loop_
_atom_site_label
_atom_site_type_symbol
_atom_site_fract_x
_atom_site_fract_y
_atom_site_fract_z
Cd1 Cd 0.36285(2) 0.39190(5) 0.14136(1)
Ni1 Ni 0.50000 0.8904(1) 0.25000
Ni2 Ni 0.25000 0.75000 0.00000
N1 N 0.4391(3) 0.6098(7) 0.1821(2)
N2 N 0.4293(3) 0.1667(7) 0.1831(2)
N3 N 0.2962(3) 0.6262(8) 0.0960(2)
N4 N 0.3313(5) 1.0829(11) 0.0211(3)
N5 N 0.4215(3) 0.3584(7) 0.0883(2)
N6 N 0.3061(3) 0.4356(8) 0.1971(2)
N7 N 0.2614(3) 0.2370(7) 0.0963(2)
C1 C 0.4625(3) 0.7188(8) 0.2072(2)
C2 C 0.4577(3) 0.0609(8) 0.2080(2)
C3 C 0.2796(3) 0.6798(8) 0.0601(2)
C4 C 0.3021(4) 0.9542(10) 0.0146(2)
C5 C 0.4591(4) 0.5159(10) 0.0815(2)
C6 C 0.4798(3) 0.5066(8) 0.0390(2)
C7 C 0.5436(4) 0.4275(10) 0.0402(2)
C8 C 0.4370(4) 0.5792(11) -0.0011(2)
C9 C 0.3494(4) 0.3882(11) 0.2429(2)
C10 C 0.3186(4) 0.4480(9) 0.2796(2)
C11 C 0.2529(4) 0.3850(10) 0.2804(2)
C12 C 0.2298(4) 0.4293(9) 0.3166(2)
C13 C 0.2706(3) 0.5313(8) 0.3522(2)
C14 C 0.3349(4) 0.6000(9) 0.3501(2)
C15 C 0.3583(4) 0.5552(10) 0.3136(2)
C16 C 0.2522(4) 0.0538(9) 0.1064(2)
H1 H 0.38540 0.32582 0.05859
H2 H 0.45733 0.26339 0.09878
H3 H 0.42379 0.62789 0.07887
H4 H 0.50780 0.53237 0.11089
H5 H 0.57806 0.37148 0.07139
H6 H 0.38785 0.64220 -0.00221
H7 H 0.26142 0.36476 0.18843
H8 H 0.29353 0.56083 0.19702
H9 H 0.35438 0.24663 0.24464
H10 H 0.40260 0.44645 0.25006
H11 H 0.22061 0.30330 0.25341
H12 H 0.17864 0.38264 0.31687
H13 H 0.36613 0.68653 0.37620
H14 H 0.40843 0.60585 0.31240
H15 H 0.21128 -0.00385 0.07705
H16 H 0.30332 -0.01372 0.11227
H17 H 0.26203 0.24150 0.06441
H18 H 0.21854 0.30018 0.09831
C1A C 0.5375(3) 0.7188(8) 0.2928(2)
C2_2 C 0.4577(3) 1.0609(8) 0.2080(2)
C2A C 0.5423(3) 1.0609(8) 0.2920(2)
C3F C 0.2204(3) 0.8202(8) -0.0601(2)
C4F C 0.1979(4) 0.5458(10) -0.0146(2)
Ni1_2 Ni 0.50000 -0.1096(1) 0.25000
C8D C 0.5630(4) 0.4208(11) 0.0011(2)
C7D C 0.4564(4) 0.5725(10) -0.0402(2)
C16C C 0.2478(4) 0.5538(9) 0.3936(2)
C13C C 0.2294(3) 0.0313(8) 0.1478(2)
N1A N 0.5609(3) 0.6098(7) 0.3179(2)
N2_2 N 0.4293(3) 1.1667(7) 0.1831(2)
N4F N 0.1687(5) 0.4171(11) -0.0211(3)
N3F N 0.2038(3) 0.8738(8) -0.0960(2)
C6D C 0.5202(3) 0.4934(8) -0.0390(2)
H5D H 0.42194 0.62852 -0.07139
H6D H 0.61215 0.35780 0.00221
C12C C 0.2702(4) -0.0707(9) 0.1834(2)
C14C C 0.1651(4) 0.1000(9) 0.1499(2)
N7C N 0.2386(3) 0.7370(7) 0.4037(2)
H15C H 0.28872 0.49615 0.42295
H16C H 0.19668 0.48628 0.38773
Cd1A Cd 0.63715(2) 0.39190(5) 0.35864(1)
Cd1_2 Cd 0.36285(2) 1.39190(5) 0.14136(1)
Cd1F Cd 0.13715(2) 1.10810(5) -0.14136(1)
C5D C 0.5409(4) 0.4841(10) -0.0815(2)
C11C C 0.2471(4) -0.1150(10) 0.2196(2)
H12C H 0.32136 -0.11736 0.18313
C15C C 0.1417(4) 0.0552(10) 0.1864(2)
H13C H 0.13387 0.18653 0.12380
Cd1C Cd 0.13715(2) 0.89190(5) 0.35864(1)
H17C H 0.23797 0.74150 0.43559
H18C H 0.28146 0.80018 0.40169
N5D N 0.5785(3) 0.6416(7) -0.0883(2)
H3D H 0.57621 0.37211 -0.07887
H4D H 0.49220 0.46763 -0.11089
C10C C 0.1814(4) -0.0520(9) 0.2204(2)
H11C H 0.27939 -0.19670 0.24659
H14C H 0.09157 0.10585 0.18760
Cd1D Cd 0.63715(2) 0.60810(5) -0.14136(1)
H1D H 0.61460 0.67418 -0.05859
H2D H 0.54267 0.73661 -0.09878
C9C C 0.1506(4) -0.1118(11) 0.2571(2)
N6C N 0.1939(3) -0.0644(8) 0.3029(2)
H9C H 0.14562 -0.25337 0.25536
H10C H 0.09740 -0.05355 0.24994
Cd1C_2 Cd 0.13715(2) -0.10810(5) 0.35864(1)
H7C H 0.23858 -0.13524 0.31157
H8C H 0.20647 0.06083 0.30298
N1D N 0.5609(3) 0.3902(7) -0.1821(2)
N2D N 0.5707(3) 0.8333(7) -0.1831(2)
N3D N 0.7038(3) 0.3738(8) -0.0960(2)
N6D N 0.6939(3) 0.5644(8) -0.1971(2)
N7D N 0.7386(3) 0.7630(7) -0.0963(2)
H7D H 0.73858 0.63524 -0.18843
H8D H 0.70647 0.43917 -0.19702
H17D H 0.73797 0.75850 -0.06441
H18D H 0.78146 0.69982 -0.09831
N8 N 0.1059(6) 0.5059(11) 0.0723(3)
C17 C 0.1351(5) 0.5817(12) 0.1141(4)
C18 C 0.0885(7) 0.5585(12) 0.1366(3)
C19 C 0.0289(6) 0.4721(14) 0.1088(5)
C20 C 0.0390(7) 0.4401(12) 0.0697(4)
H19 H 0.12856 0.49895 0.04805
H20 H 0.18641 0.64509 0.12367
H21 H 0.09771 0.60190 0.17093
H22 H -0.01813 0.43573 0.11687
H23 H 0.00515 0.37635 0.03955
loop_
_geom_bond_atom_site_label_1
_geom_bond_atom_site_label_2
_geom_bond_site_symmetry_1
_geom_bond_site_symmetry_2
Cd1 N1 1_555 1_555
Ni1 C1 1_555 1_555
Ni2 C3 1_555 1_555
N1 C1 1_555 1_555
N2 Cd1 1_555 1_555
N3 Cd1 1_555 1_555
N4 C4 1_555 1_555
N5 Cd1 1_555 1_555
N6 Cd1 1_555 1_555
N7 Cd1 1_555 1_555
C2 N2 1_555 1_555
C3 N3 1_555 1_555
C4 Ni2 1_555 1_555
C5 N5 1_555 1_555
C6 C5 1_555 1_555
C7 C6 1_555 1_555
C8 C6 1_555 1_555
C9 N6 1_555 1_555
C10 C9 1_555 1_555
C11 C10 1_555 1_555
C12 C11 1_555 1_555
C13 C12 1_555 1_555
C14 C13 1_555 1_555
C15 C10 1_555 1_555
C16 N7 1_555 1_555
N8 C17 1_555 1_555
C17 C18 1_555 1_555
C18 C19 1_555 1_555
C19 C20 1_555 1_555
C20 N8 1_555 1_555
H1 N5 1_555 1_555
H2 N5 1_555 1_555
H3 C5 1_555 1_555
H4 C5 1_555 1_555
H5 C7 1_555 1_555
H6 C8 1_555 1_555
H7 N6 1_555 1_555
H8 N6 1_555 1_555
H9 C9 1_555 1_555
H10 C9 1_555 1_555
H11 C11 1_555 1_555
H12 C12 1_555 1_555
H13 C14 1_555 1_555
H14 C15 1_555 1_555
H15 C16 1_555 1_555
H16 C16 1_555 1_555
H17 N7 1_555 1_555
H18 N7 1_555 1_555
H19 N8 1_555 1_555
H20 C17 1_555 1_555
H21 C18 1_555 1_555
H22 C19 1_555 1_555
H23 C20 1_555 1_555
C1A Ni1 1_555 1_555
C2_2 Ni1 1_555 1_555
C2A Ni1 1_555 1_555
C3F Ni2 1_555 1_555
C4F Ni2 1_555 1_555
Ni1_2 C2 1_555 1_555
C8D C7 1_555 1_555
C7D C8 1_555 1_555
C16C C13 1_555 1_555
C13C C16 1_555 1_555
N1A C1A 1_555 1_555
N2_2 C2_2 1_555 1_555
N4F C4F 1_555 1_555
N3F C3F 1_555 1_555
C6D C8D 1_555 1_555
H5D C7D 1_555 1_555
H6D C8D 1_555 1_555
C12C C13C 1_555 1_555
C14C C13C 1_555 1_555
N7C C16C 1_555 1_555
H15C C16C 1_555 1_555
H16C C16C 1_555 1_555
Cd1A N1A 1_555 1_555
Cd1_2 N2_2 1_555 1_555
Cd1F N3F 1_555 1_555
C5D C6D 1_555 1_555
C11C C12C 1_555 1_555
H12C C12C 1_555 1_555
C15C C14C 1_555 1_555
H13C C14C 1_555 1_555
Cd1C N7C 1_555 1_555
H17C N7C 1_555 1_555
H18C N7C 1_555 1_555
N5D C5D 1_555 1_555
H3D C5D 1_555 1_555
H4D C5D 1_555 1_555
C10C C11C 1_555 1_555
H11C C11C 1_555 1_555
H14C C15C 1_555 1_555
Cd1D N5D 1_555 1_555
H1D N5D 1_555 1_555
H2D N5D 1_555 1_555
C9C C10C 1_555 1_555
N6C C9C 1_555 1_555
H9C C9C 1_555 1_555
H10C C9C 1_555 1_555
Cd1C_2 N6C 1_555 1_555
H7C N6C 1_555 1_555
H8C N6C 1_555 1_555
N1D Cd1D 1_555 1_555
N2D Cd1D 1_555 1_555
N3D Cd1D 1_555 1_555
N6D Cd1D 1_555 1_555
N7D Cd1D 1_555 1_555
H7D N6D 1_555 1_555
H8D N6D 1_555 1_555
H17D N7D 1_555 1_555
H18D N7D 1_555 1_555
C14 C15 1_555 1_555
C7D C6D 1_555 1_555
C15C C10C 1_555 1_555

#END
