
#######################################################################
#
#                 Cambridge Crystallographic Data Centre
#                                CCDC 
#
#######################################################################
#
# If this CIF has been generated from an entry in the Cambridge 
# Structural Database, then it will include bibliographic, chemical, 
# crystal, experimental, refinement or atomic coordinate data resulting 
# from the CCDC's data processing and validation procedures.
#
#######################################################################

data_ZURSOU
_symmetry_cell_setting           monoclinic
_symmetry_space_group_name_H-M   'C 2/m'
_symmetry_Int_Tables_number      12
_space_group_name_Hall           '-C 2y'
loop_
_symmetry_equiv_pos_site_id
_symmetry_equiv_pos_as_xyz
1 x,y,z
2 -x,y,-z
3 1/2+x,1/2+y,z
4 1/2-x,1/2+y,-z
5 -x,-y,-z
6 x,-y,z
7 1/2-x,1/2-y,-z
8 1/2+x,1/2-y,z
_cell_length_a                   11.1292(8)
_cell_length_b                   11.435(3)
_cell_length_c                   11.266(1)
_cell_angle_alpha                90
_cell_angle_beta                 94.252(8)
_cell_angle_gamma                90
_cell_volume                     1429.79
loop_
_atom_site_label
_atom_site_type_symbol
_atom_site_fract_x
_atom_site_fract_y
_atom_site_fract_z
Cd1 Cd 0.00000 0.00000 0.00000
Ag1 Ag 0.50000 0.00000 0.00000
C1 C 0.3162(5) 0.00000 0.0141(7)
N1 N 0.2151(4) 0.00000 0.0176(5)
N3 N -0.0060(3) 0.1473(3) 0.1410(3)
C3 C -0.0909(5) 0.1726(4) 0.2118(4)
N4 N -0.0612(5) 0.2688(3) 0.2781(4)
C4 C 0.0445(6) 0.3083(6) 0.2468(6)
C5 C 0.0799(6) 0.2325(5) 0.1629(6)
C6 C -0.1395(8) 0.3241(7) 0.3643(7)
H1 H -0.17320 0.13051 0.22268
H2 H 0.09455 0.38164 0.27701
H3 H 0.15860 0.23171 0.11691
H4 H -0.09362 0.39990 0.40519
H5 H -0.15809 0.26110 0.43319
H6 H -0.22401 0.35186 0.31769
C1A C 0.6838(5) 0.00000 -0.0141(7)
N1A N 0.7849(4) 0.00000 -0.0176(5)
Cd1A Cd 1.00000 0.00000 0.00000
N1A_2 N -0.2151(4) 0.00000 -0.0176(5)
N3A N 0.0060(3) 0.1473(3) -0.1410(3)
C3A C 0.0909(5) 0.1726(4) -0.2118(4)
N4A N 0.0612(5) 0.2688(3) -0.2781(4)
C4A C -0.0445(6) 0.3083(6) -0.2468(6)
C5A C -0.0799(6) 0.2325(5) -0.1629(6)
H3A H -0.15860 0.23171 -0.11691
H2A H -0.09455 0.38164 -0.27701
C6A C 0.1395(8) 0.3241(7) -0.3643(7)
H4A H 0.09362 0.39990 -0.40519
H5A H 0.15809 0.26110 -0.43319
H6A H 0.22401 0.35186 -0.31769
H1A H 0.17320 0.13051 -0.22268
N3D N 0.0060(3) -0.1473(3) -0.1410(3)
C3D C 0.0909(5) -0.1726(4) -0.2118(4)
N4D N 0.0612(5) -0.2688(3) -0.2781(4)
C4D C -0.0445(6) -0.3083(6) -0.2468(6)
C5D C -0.0799(6) -0.2325(5) -0.1629(6)
H3D H -0.15860 -0.23171 -0.11691
H2D H -0.09455 -0.38164 -0.27701
C6D C 0.1395(8) -0.3241(7) -0.3643(7)
H4D H 0.09362 -0.39990 -0.40519
H5D H 0.15809 -0.26110 -0.43319
H6D H 0.22401 -0.35186 -0.31769
H1D H 0.17320 -0.13051 -0.22268
N3E N -0.0060(3) -0.1473(3) 0.1410(3)
C3E C -0.0909(5) -0.1726(4) 0.2118(4)
N4E N -0.0612(5) -0.2688(3) 0.2781(4)
C4E C 0.0445(6) -0.3083(6) 0.2468(6)
C5E C 0.0799(6) -0.2325(5) 0.1629(6)
H3E H 0.15860 -0.23171 0.11691
H2E H 0.09455 -0.38164 0.27701
C6E C -0.1395(8) -0.3241(7) 0.3643(7)
H4E H -0.09362 -0.39990 0.40519
H5E H -0.15809 -0.26110 0.43319
H6E H -0.22401 -0.35186 0.31769
H1E H -0.17320 -0.13051 0.22268
Ag2 Ag 0.00000 0.00000 0.50000
C2 C 0.1818(8) 0.00000 0.5501(6)
N2 N 0.2808(6) 0.00000 0.5813(5)
C2A C -0.1818(8) 0.00000 0.4499(6)
N2A N -0.2808(6) 0.00000 0.4187(5)
loop_
_geom_bond_atom_site_label_1
_geom_bond_atom_site_label_2
_geom_bond_site_symmetry_1
_geom_bond_site_symmetry_2
Cd1 N1 1_555 1_555
Ag1 C1 1_555 1_555
Ag2 C2 1_555 1_555
C1 N1 1_555 1_555
C2 N2 1_555 1_555
N3 Cd1 1_555 1_555
C3 N3 1_555 1_555
N4 C3 1_555 1_555
C4 N4 1_555 1_555
C5 N3 1_555 1_555
C6 N4 1_555 1_555
H1 C3 1_555 1_555
H2 C4 1_555 1_555
H3 C5 1_555 1_555
H4 C6 1_555 1_555
H5 C6 1_555 1_555
H6 C6 1_555 1_555
C1A Ag1 1_555 1_555
N1A C1A 1_555 1_555
Cd1A N1A 1_555 1_555
N1A_2 Cd1 1_555 1_555
N3A Cd1 1_555 1_555
C3A N3A 1_555 1_555
N4A C3A 1_555 1_555
C4A N4A 1_555 1_555
C5A N3A 1_555 1_555
H3A C5A 1_555 1_555
H2A C4A 1_555 1_555
C6A N4A 1_555 1_555
H4A C6A 1_555 1_555
H5A C6A 1_555 1_555
H6A C6A 1_555 1_555
H1A C3A 1_555 1_555
N3D Cd1 1_555 1_555
C3D N3D 1_555 1_555
N4D C3D 1_555 1_555
C4D N4D 1_555 1_555
C5D N3D 1_555 1_555
H3D C5D 1_555 1_555
H2D C4D 1_555 1_555
C6D N4D 1_555 1_555
H4D C6D 1_555 1_555
H5D C6D 1_555 1_555
H6D C6D 1_555 1_555
H1D C3D 1_555 1_555
N3E Cd1 1_555 1_555
C3E N3E 1_555 1_555
N4E C3E 1_555 1_555
C4E N4E 1_555 1_555
C5E N3E 1_555 1_555
H3E C5E 1_555 1_555
H2E C4E 1_555 1_555
C6E N4E 1_555 1_555
H4E C6E 1_555 1_555
H5E C6E 1_555 1_555
H6E C6E 1_555 1_555
H1E C3E 1_555 1_555
C2A Ag2 1_555 1_555
N2A C2A 1_555 1_555
C4 C5 1_555 1_555
C4A C5A 1_555 1_555
C4D C5D 1_555 1_555
C4E C5E 1_555 1_555

#END
