
#######################################################################
#
#                 Cambridge Crystallographic Data Centre
#                                CCDC 
#
#######################################################################
#
# If this CIF has been generated from an entry in the Cambridge 
# Structural Database, then it will include bibliographic, chemical, 
# crystal, experimental, refinement or atomic coordinate data resulting 
# from the CCDC's data processing and validation procedures.
#
#######################################################################

data_ZURSUA
_symmetry_cell_setting           orthorhombic
_symmetry_space_group_name_H-M   'P n n m'
_symmetry_Int_Tables_number      58
_space_group_name_Hall           '-P 2 2n'
loop_
_symmetry_equiv_pos_site_id
_symmetry_equiv_pos_as_xyz
1 x,y,z
2 -x,-y,z
3 1/2+x,1/2-y,1/2-z
4 1/2-x,1/2+y,1/2-z
5 -x,-y,-z
6 x,y,-z
7 1/2-x,1/2+y,1/2+z
8 1/2+x,1/2-y,1/2+z
_cell_length_a                   11.212(2)
_cell_length_b                   11.156(5)
_cell_length_c                   23.646(5)
_cell_angle_alpha                90
_cell_angle_beta                 90
_cell_angle_gamma                90
_cell_volume                     2957.67
loop_
_atom_site_label
_atom_site_type_symbol
_atom_site_fract_x
_atom_site_fract_y
_atom_site_fract_z
Cd1 Cd 0.00000 0.50000 0.26318(6)
Ag1 Ag 0.50000 0.50000 0.26426(7)
C1 C 0.3149(9) 0.509(1) 0.2652(6)
N1 N 0.2136(8) 0.508(1) 0.2645(5)
N4 N -0.0064(8) 0.6560(8) 0.3295(4)
C4 C 0.056(1) 0.673(1) 0.3772(6)
N5 N 0.0227(9) 0.782(1) 0.3998(5)
C5 C -0.065(1) 0.830(1) 0.3654(6)
C6 C -0.080(1) 0.753(1) 0.3216(6)
C7 C 0.147(1) 0.593(1) 0.4024(7)
N6 N -0.0020(9) 0.6454(8) 0.1909(4)
C8 C -0.063(1) 0.651(1) 0.1435(6)
N7 N -0.015(1) 0.743(1) 0.1099(5)
C9 C 0.084(1) 0.791(1) 0.1394(6)
C10 C 0.089(1) 0.730(1) 0.1886(6)
C11 C -0.170(1) 0.580(2) 0.1262(7)
H1 H 0.05361 0.82620 0.43608
H2 H -0.11266 0.91040 0.36959
H3 H -0.13706 0.75866 0.28634
H4 H 0.22041 0.58080 0.37262
H5 H 0.18081 0.63213 0.44135
H6 H 0.10712 0.50585 0.41166
H7 H -0.04253 0.77447 0.07011
H8 H 0.14318 0.85874 0.12766
H9 H 0.14804 0.73931 0.22271
H10 H -0.24189 0.59459 0.15621
H11 H -0.19833 0.60742 0.08410
H12 H -0.14659 0.48504 0.12553
C1A C 0.6851(9) 0.491(1) 0.2652(6)
N1A N 0.7864(8) 0.492(1) 0.2645(5)
Cd1A Cd 1.00000 0.50000 0.26318(6)
N1A_2 N -0.2136(8) 0.492(1) 0.2645(5)
N4A N 0.0064(8) 0.3440(8) 0.3295(4)
C4A C -0.056(1) 0.327(1) 0.3772(6)
N5A N -0.0227(9) 0.218(1) 0.3998(5)
C5A C 0.065(1) 0.170(1) 0.3654(6)
C6A C 0.080(1) 0.247(1) 0.3216(6)
H3A H 0.13706 0.24134 0.28634
H2A H 0.11266 0.08960 0.36959
H1A H -0.05361 0.17380 0.43608
C7A C -0.147(1) 0.407(1) 0.4024(7)
H4A H -0.22041 0.41920 0.37262
H5A H -0.18081 0.36787 0.44135
H6A H -0.10712 0.49415 0.41166
N6A N 0.0020(9) 0.3546(8) 0.1909(4)
C8A C 0.063(1) 0.349(1) 0.1435(6)
N7A N 0.015(1) 0.257(1) 0.1099(5)
C9A C -0.084(1) 0.209(1) 0.1394(6)
C10A C -0.089(1) 0.270(1) 0.1886(6)
H9A H -0.14804 0.26069 0.22271
H8A H -0.14318 0.14126 0.12766
H7A H 0.04253 0.22553 0.07011
C11A C 0.170(1) 0.420(2) 0.1262(7)
H10A H 0.24189 0.40541 0.15621
H11A H 0.19833 0.39258 0.08410
H12A H 0.14659 0.51496 0.12553
Ag2 Ag 0.2797(2) 0.6723(2) 0.00000
C2 C 0.215(2) 0.847(2) 0.00000
N2 N 0.189(2) 0.941(2) 0.00000
C3 C 0.330(2) 0.496(2) 0.00000
N3 N 0.356(2) 0.395(2) 0.00000
O1 O 0.097(2) 0.175(2) 0.00000
H13 H 0.12848 0.09483 0.00000
H14 H 0.01749 0.14249 0.00000
loop_
_geom_bond_atom_site_label_1
_geom_bond_atom_site_label_2
_geom_bond_site_symmetry_1
_geom_bond_site_symmetry_2
Cd1 N1 1_555 1_555
Ag1 C1 1_555 1_555
Ag2 C2 1_555 1_555
C1 N1 1_555 1_555
C2 N2 1_555 1_555
C3 Ag2 1_555 1_555
N3 C3 1_555 1_555
N4 Cd1 1_555 1_555
C4 N4 1_555 1_555
N5 C4 1_555 1_555
C5 N5 1_555 1_555
C6 N4 1_555 1_555
C7 C4 1_555 1_555
N6 Cd1 1_555 1_555
C8 N6 1_555 1_555
N7 C8 1_555 1_555
C9 N7 1_555 1_555
C10 N6 1_555 1_555
C11 C8 1_555 1_555
O1 H13 1_555 1_555
H1 N5 1_555 1_555
H2 C5 1_555 1_555
H3 C6 1_555 1_555
H4 C7 1_555 1_555
H5 C7 1_555 1_555
H6 C7 1_555 1_555
H7 N7 1_555 1_555
H8 C9 1_555 1_555
H9 C10 1_555 1_555
H10 C11 1_555 1_555
H11 C11 1_555 1_555
H12 C11 1_555 1_555
H14 O1 1_555 1_555
C1A Ag1 1_555 1_555
N1A C1A 1_555 1_555
Cd1A N1A 1_555 1_555
N1A_2 Cd1 1_555 1_555
N4A Cd1 1_555 1_555
C4A N4A 1_555 1_555
N5A C4A 1_555 1_555
C5A N5A 1_555 1_555
C6A N4A 1_555 1_555
H3A C6A 1_555 1_555
H2A C5A 1_555 1_555
H1A N5A 1_555 1_555
C7A C4A 1_555 1_555
H4A C7A 1_555 1_555
H5A C7A 1_555 1_555
H6A C7A 1_555 1_555
N6A Cd1 1_555 1_555
C8A N6A 1_555 1_555
N7A C8A 1_555 1_555
C9A N7A 1_555 1_555
C10A N6A 1_555 1_555
H9A C10A 1_555 1_555
H8A C9A 1_555 1_555
H7A N7A 1_555 1_555
C11A C8A 1_555 1_555
H10A C11A 1_555 1_555
H11A C11A 1_555 1_555
H12A C11A 1_555 1_555
C5 C6 1_555 1_555
C9 C10 1_555 1_555
C5A C6A 1_555 1_555
C9A C10A 1_555 1_555

#END
