
#######################################################################
#
#                 Cambridge Crystallographic Data Centre
#                                CCDC 
#
#######################################################################
#
# If this CIF has been generated from an entry in the Cambridge 
# Structural Database, then it will include bibliographic, chemical, 
# crystal, experimental, refinement or atomic coordinate data resulting 
# from the CCDC's data processing and validation procedures.
#
#######################################################################

data_ZURTIR
_symmetry_cell_setting           triclinic
_symmetry_space_group_name_H-M   'P -1'
_symmetry_Int_Tables_number      2
_space_group_name_Hall           '-P 1'
loop_
_symmetry_equiv_pos_site_id
_symmetry_equiv_pos_as_xyz
1 x,y,z
2 -x,-y,-z
_cell_length_a                   6.3367(12)
_cell_length_b                   10.873(2)
_cell_length_c                   15.939(3)
_cell_angle_alpha                100.037(3)
_cell_angle_beta                 99.697(3)
_cell_angle_gamma                92.114(3)
_cell_volume                     1063.44
loop_
_atom_site_label
_atom_site_type_symbol
_atom_site_fract_x
_atom_site_fract_y
_atom_site_fract_z
Cu1 Cu 1.0000 1.0000 0.0000
O1 O 0.2837(8) 0.4634(4) -0.0904(4)
N1 N 0.8279(7) 0.8445(4) -0.0628(3)
C1 C 0.8918(9) 0.7702(5) -0.1295(4)
H1 H 1.0142 0.7945 -0.1491
Cu2 Cu 1.5000 0.5000 0.5000
O2 O 0.7597(10) -0.0331(5) 0.3986(4)
N2 N 0.3505(7) 0.6718(4) -0.0362(3)
H2 H 0.3021 0.7342 -0.0058
C2 C 0.7777(9) 0.6582(5) -0.1693(4)
H3 H 0.8245 0.6076 -0.2149
S1 S 1.1307(2) 0.75599(13) 0.26381(9)
O3 O 1.2121(6) 0.8985(3) 0.0622(2)
N3 N 1.3348(7) 0.3406(4) 0.4386(3)
C3 C 0.5951(9) 0.6218(5) -0.1414(4)
H4 H 0.5161 0.5476 -0.1686
O4 O 0.9665(7) 0.9341(4) 0.1449(3)
N4 N 0.8644(7) 0.1658(4) 0.4683(3)
H5 H 0.8308 0.2254 0.5057
C4 C 0.5309(8) 0.6980(5) -0.0719(3)
O5 O 1.5231(6) 0.5506(3) 0.3871(2)
C5 C 0.6507(8) 0.8092(4) -0.0352(3)
H6 H 0.6064 0.8614 0.0103
O6 O 1.2146(7) 0.6210(4) 0.4143(3)
C6 C 0.2430(9) 0.5576(5) -0.0447(4)
C7 C 0.0753(8) 0.5582(5) 0.0124(4)
H7 H -0.0073 0.6310 0.0085
H8 H 0.1462 0.5651 0.0720
C8 C 1.1626(8) 0.3029(5) 0.4682(3)
H9 H 1.1237 0.3522 0.5163
C9 C 1.0401(8) 0.1930(5) 0.4300(4)
C10 C 1.1000(9) 0.1179(5) 0.3586(4)
H10 H 1.0220 0.0433 0.3316
C11 C 1.2786(10) 0.1582(5) 0.3295(4)
H11 H 1.3225 0.1097 0.2823
C12 C 1.3928(9) 0.2689(5) 0.3693(3)
H12 H 1.5118 0.2948 0.3481
C13 C 0.7399(9) 0.0556(5) 0.4534(4)
C14 C 0.5763(8) 0.0584(4) 0.5115(4)
H13 H 0.4942 0.1313 0.5074
H14 H 0.6496 0.0664 0.5709
C15 C 1.3560(9) 0.6830(5) 0.2981(3)
C16 C 1.5178(9) 0.7025(5) 0.2561(4)
H15 H 1.6511 0.6696 0.2667
C17 C 1.4599(9) 0.7799(5) 0.1935(4)
H16 H 1.5522 0.8051 0.1592
C18 C 1.2538(9) 0.8127(5) 0.1898(3)
C19 C 1.1325(8) 0.8873(4) 0.1298(3)
C20 C 1.3619(8) 0.6138(4) 0.3705(3)
O1A O -0.2837(8) 0.5366(4) 0.0904(4)
N1A N -0.8279(7) 0.1555(4) 0.0628(3)
C1A C -0.8918(9) 0.2298(5) 0.1295(4)
H1A H -1.0142 0.2055 0.1491
N2A N -0.3505(7) 0.3282(4) 0.0362(3)
H2A H -0.3021 0.2658 0.0058
C2A C -0.7777(9) 0.3418(5) 0.1693(4)
H3A H -0.8245 0.3924 0.2149
C3A C -0.5951(9) 0.3782(5) 0.1414(4)
H4A H -0.5161 0.4524 0.1686
C4A C -0.5309(8) 0.3020(5) 0.0719(3)
C5A C -0.6507(8) 0.1908(4) 0.0352(3)
H6A H -0.6064 0.1386 -0.0103
C6A C -0.2430(9) 0.4424(5) 0.0447(4)
C7A C -0.0753(8) 0.4418(5) -0.0124(4)
H7A H 0.0073 0.3690 -0.0085
H8A H -0.1462 0.4349 -0.0720
O2A O 0.2403(10) 0.0331(5) 0.6014(4)
N3A N -0.3348(7) -0.3406(4) 0.5614(3)
N4A N 0.1356(7) -0.1658(4) 0.5317(3)
H5A H 0.1692 -0.2254 0.4943
C8A C -0.1626(8) -0.3029(5) 0.5318(3)
H9A H -0.1237 -0.3522 0.4837
C9A C -0.0401(8) -0.1930(5) 0.5700(4)
C10A C -0.1000(9) -0.1179(5) 0.6414(4)
H10A H -0.0220 -0.0433 0.6684
C11A C -0.2786(10) -0.1582(5) 0.6705(4)
H11A H -0.3225 -0.1097 0.7177
C12A C -0.3928(9) -0.2689(5) 0.6307(3)
H12A H -0.5118 -0.2948 0.6519
C13A C 0.2601(9) -0.0556(5) 0.5466(4)
C14A C 0.4237(8) -0.0584(4) 0.4885(4)
H13A H 0.5058 -0.1313 0.4926
H14A H 0.3504 -0.0664 0.4291
S1A S 0.8693(2) 1.24401(13) -0.26381(9)
O3A O 0.7879(6) 1.1015(3) -0.0622(2)
O4A O 1.0335(7) 1.0659(4) -0.1449(3)
O5A O 0.4769(6) 1.4494(3) -0.3871(2)
O6A O 0.7854(7) 1.3790(4) -0.4143(3)
C15A C 0.6440(9) 1.3170(5) -0.2981(3)
C16A C 0.4822(9) 1.2975(5) -0.2561(4)
H15A H 0.3489 1.3304 -0.2667
C17A C 0.5401(9) 1.2201(5) -0.1935(4)
H16A H 0.4478 1.1949 -0.1592
C18A C 0.7462(9) 1.1873(5) -0.1898(3)
C19A C 0.8675(8) 1.1127(4) -0.1298(3)
C20A C 0.6381(8) 1.3862(4) -0.3705(3)
Cu1_2 Cu -1.0000 0.0000 0.0000
N1A_2 N 1.1721(7) 1.1555(4) 0.0628(3)
Cu2_2 Cu -0.5000 -0.5000 0.5000
Cu2_3 Cu 0.5000 1.5000 -0.5000
N3A_2 N 1.6652(7) 0.6594(4) 0.5614(3)
O5A_2 O 1.4769(6) 0.4494(3) 0.6129(2)
O6A_2 O 1.7854(7) 0.3790(4) 0.5857(3)
O7 O 0.8605(16) 0.4149(12) 0.3097(9)
H17 H 0.7641 0.4609 0.3261
H18 H 0.9563 0.4705 0.3379
O8 O 0.653(2) 0.1037(16) 0.2014(12)
loop_
_geom_bond_atom_site_label_1
_geom_bond_atom_site_label_2
_geom_bond_site_symmetry_1
_geom_bond_site_symmetry_2
Cu1 N1 1_555 1_555
O1 C6 1_555 1_555
N1 C1 1_555 1_555
C1 H1 1_555 1_555
Cu2 N3 1_555 1_555
O2 C13 1_555 1_555
N2 H2 1_555 1_555
C2 C1 1_555 1_555
H3 C2 1_555 1_555
S1 C15 1_555 1_555
O3 Cu1 1_555 1_555
N3 C8 1_555 1_555
C3 C2 1_555 1_555
H4 C3 1_555 1_555
O4 Cu1 1_555 1_555
N4 H5 1_555 1_555
C4 N2 1_555 1_555
O5 Cu2 1_555 1_555
C5 N1 1_555 1_555
H6 C5 1_555 1_555
O6 Cu2 1_555 1_555
C6 N2 1_555 1_555
C7 C6 1_555 1_555
H7 C7 1_555 1_555
H8 C7 1_555 1_555
C8 H9 1_555 1_555
C9 N4 1_555 1_555
C10 C9 1_555 1_555
H10 C10 1_555 1_555
C11 C10 1_555 1_555
H11 C11 1_555 1_555
C12 N3 1_555 1_555
H12 C12 1_555 1_555
C13 N4 1_555 1_555
C14 C13 1_555 1_555
H13 C14 1_555 1_555
H14 C14 1_555 1_555
C15 C16 1_555 1_555
C16 H15 1_555 1_555
C17 C16 1_555 1_555
H16 C17 1_555 1_555
C18 S1 1_555 1_555
C19 O3 1_555 1_555
C20 O5 1_555 1_555
O7 H17 1_555 1_555
H18 O7 1_555 1_555
O1A C6A 1_555 1_555
N1A C1A 1_555 1_555
C1A H1A 1_555 1_555
N2A H2A 1_555 1_555
C2A C1A 1_555 1_555
H3A C2A 1_555 1_555
C3A C2A 1_555 1_555
H4A C3A 1_555 1_555
C4A N2A 1_555 1_555
C5A N1A 1_555 1_555
H6A C5A 1_555 1_555
C6A N2A 1_555 1_555
C7A C7 1_555 1_555
H7A C7A 1_555 1_555
H8A C7A 1_555 1_555
O2A C13A 1_555 1_555
N3A C8A 1_555 1_555
N4A H5A 1_555 1_555
C8A H9A 1_555 1_555
C9A N4A 1_555 1_555
C10A C9A 1_555 1_555
H10A C10A 1_555 1_555
C11A C10A 1_555 1_555
H11A C11A 1_555 1_555
C12A N3A 1_555 1_555
H12A C12A 1_555 1_555
C13A N4A 1_555 1_555
C14A C14 1_555 1_555
H13A C14A 1_555 1_555
H14A C14A 1_555 1_555
S1A C15A 1_555 1_555
O3A Cu1 1_555 1_555
O4A Cu1 1_555 1_555
O5A C20A 1_555 1_555
O6A C20A 1_555 1_555
C15A C16A 1_555 1_555
C16A H15A 1_555 1_555
C17A C16A 1_555 1_555
H16A C17A 1_555 1_555
C18A S1A 1_555 1_555
C19A O3A 1_555 1_555
C20A C15A 1_555 1_555
Cu1_2 N1A 1_555 1_555
N1A_2 Cu1 1_555 1_555
Cu2_2 N3A 1_555 1_555
Cu2_3 O5A 1_555 1_555
N3A_2 Cu2 1_555 1_555
O5A_2 Cu2 1_555 1_555
O6A_2 Cu2 1_555 1_555
C3 C4 1_555 1_555
O4 C19 1_555 1_555
C4 C5 1_555 1_555
O6 C20 1_555 1_555
C8 C9 1_555 1_555
C11 C12 1_555 1_555
C15 C20 1_555 1_555
C17 C18 1_555 1_555
C18 C19 1_555 1_555
C3A C4A 1_555 1_555
C4A C5A 1_555 1_555
C6A C7A 1_555 1_555
C8A C9A 1_555 1_555
C11A C12A 1_555 1_555
C13A C14A 1_555 1_555
O4A C19A 1_555 1_555
O6A Cu2_3 1_555 1_555
C17A C18A 1_555 1_555
C18A C19A 1_555 1_555

#END
