
#######################################################################
#
#                 Cambridge Crystallographic Data Centre
#                                CCDC 
#
#######################################################################
#
# If this CIF has been generated from an entry in the Cambridge 
# Structural Database, then it will include bibliographic, chemical, 
# crystal, experimental, refinement or atomic coordinate data resulting 
# from the CCDC's data processing and validation procedures.
#
#######################################################################

data_ZURTEN
_symmetry_cell_setting           triclinic
_symmetry_space_group_name_H-M   'P -1'
_symmetry_Int_Tables_number      2
_space_group_name_Hall           '-P 1'
loop_
_symmetry_equiv_pos_site_id
_symmetry_equiv_pos_as_xyz
1 x,y,z
2 -x,-y,-z
_cell_length_a                   10.0537(9)
_cell_length_b                   10.3653(9)
_cell_length_c                   11.2963(10)
_cell_angle_alpha                80.2200(10)
_cell_angle_beta                 82.892(2)
_cell_angle_gamma                68.8570(10)
_cell_volume                     1079.48
loop_
_atom_site_label
_atom_site_type_symbol
_atom_site_fract_x
_atom_site_fract_y
_atom_site_fract_z
Cu1 Cu 0.48508(3) 0.04962(3) -0.25671(3)
S1 S 0.49453(8) -0.48674(7) -0.21990(7)
N1 N 0.3059(2) 0.1036(2) -0.1439(2)
O1 O -0.0638(2) 0.4289(3) 0.1352(2)
C1 C 0.1895(3) 0.0772(3) -0.1633(3)
H1 H 0.1952 0.0244 -0.2237
N2 N 0.1747(2) 0.3126(2) 0.1019(2)
H2 H 0.2574 0.2997 0.1251
O2 O 0.1083(2) 0.6708(3) 0.3936(2)
C2 C 0.0622(3) 0.1263(3) -0.0961(3)
H3 H -0.0163 0.1058 -0.1114
O3 O 0.42906(19) -0.08876(17) -0.31287(17)
N3 N -0.1275(2) 0.7286(3) 0.4541(2)
H4 H -0.2036 0.7141 0.4425
C3 C 0.0502(3) 0.2058(3) -0.0063(3)
H5 H -0.0357 0.2398 0.0390
O4 O 0.3891(2) -0.73060(19) -0.39213(18)
N4 N -0.3142(2) 0.9724(2) 0.66740(19)
C4 C 0.1704(3) 0.2340(3) 0.0148(2)
C5 C 0.2956(3) 0.1792(3) -0.0558(2)
H6 H 0.3766 0.1960 -0.0411
C6 C 0.0587(3) 0.4092(3) 0.1542(3)
O5 O 0.51682(19) -0.77843(17) -0.23427(17)
C7 C 0.0978(3) 0.4909(3) 0.2338(3)
H7 H 0.1348 0.5583 0.1844
H8 H 0.1721 0.4281 0.2847
C8 C -0.0321(3) 0.5664(3) 0.3117(3)
H9 H -0.1083 0.6223 0.2599
H10 H -0.0644 0.4974 0.3639
C9 C -0.0072(3) 0.6596(3) 0.3884(2)
C10 C -0.1449(3) 0.8198(3) 0.5378(2)
C11 C -0.0330(3) 0.8441(3) 0.5807(3)
H11 H 0.0613 0.8007 0.5533
C12 C -0.0671(3) 0.9348(4) 0.6653(3)
H12 H 0.0054 0.9539 0.6945
O6 O 0.5308(2) -0.2339(2) -0.1537(2)
C13 C -0.2059(3) 0.9971(3) 0.7071(3)
H13 H -0.2258 1.0577 0.7641
C14 C -0.2825(3) 0.8868(3) 0.5830(2)
H14 H -0.3573 0.8718 0.5535
C15 C 0.4248(3) -0.5427(3) -0.3239(3)
C16 C 0.3586(3) -0.4363(3) -0.4096(3)
H15 H 0.3144 -0.4476 -0.4728
C17 C 0.3649(3) -0.3077(3) -0.3915(3)
H16 H 0.3253 -0.2243 -0.4413
C18 C 0.4354(3) -0.3189(3) -0.2927(3)
C19 C 0.4443(3) -0.6921(3) -0.3183(2)
C20 C 0.4686(3) -0.2079(3) -0.2476(3)
Cu1_2 Cu -0.51492(3) 1.04962(3) 0.74329(3)
Cu1_3 Cu 0.48508(3) -0.95038(3) -0.25671(3)
O4_2 O 0.3891(2) 0.26940(19) -0.39213(18)
N4_2 N 0.6858(2) -0.0276(2) -0.33260(19)
O5_2 O 0.51682(19) 0.22157(17) -0.23427(17)
O7 O -0.2915(4) 0.2073(5) -0.0484(4)
loop_
_geom_bond_atom_site_label_1
_geom_bond_atom_site_label_2
_geom_bond_site_symmetry_1
_geom_bond_site_symmetry_2
Cu1 N1 1_555 1_555
S1 C15 1_555 1_555
N1 C1 1_555 1_555
O1 C6 1_555 1_555
C1 H1 1_555 1_555
N2 H2 1_555 1_555
O2 C9 1_555 1_555
C2 C1 1_555 1_555
H3 C2 1_555 1_555
O3 Cu1 1_555 1_555
N3 H4 1_555 1_555
C3 C2 1_555 1_555
H5 C3 1_555 1_555
O4 C19 1_555 1_555
N4 C13 1_555 1_555
C4 N2 1_555 1_555
C5 N1 1_555 1_555
H6 C5 1_555 1_555
C6 N2 1_555 1_555
O5 C19 1_555 1_555
C7 C6 1_555 1_555
H7 C7 1_555 1_555
H8 C7 1_555 1_555
C8 C7 1_555 1_555
H9 C8 1_555 1_555
H10 C8 1_555 1_555
C9 N3 1_555 1_555
C10 N3 1_555 1_555
C11 C10 1_555 1_555
H11 C11 1_555 1_555
C12 C11 1_555 1_555
H12 C12 1_555 1_555
O6 C20 1_555 1_555
C13 C12 1_555 1_555
H13 C13 1_555 1_555
C14 N4 1_555 1_555
H14 C14 1_555 1_555
C15 C16 1_555 1_555
C16 H15 1_555 1_555
C17 C16 1_555 1_555
H16 C17 1_555 1_555
C18 S1 1_555 1_555
C19 C15 1_555 1_555
C20 O3 1_555 1_555
Cu1_2 N4 1_555 1_555
Cu1_3 O4 1_555 1_555
O4_2 Cu1 1_555 1_555
N4_2 Cu1 1_555 1_555
O5_2 Cu1 1_555 1_555
C3 C4 1_555 1_555
C4 C5 1_555 1_555
O5 Cu1_3 1_555 1_555
C8 C9 1_555 1_555
C10 C14 1_555 1_555
C17 C18 1_555 1_555
C18 C20 1_555 1_555

#END
