
#######################################################################
#
#                 Cambridge Crystallographic Data Centre
#                                CCDC 
#
#######################################################################
#
# If this CIF has been generated from an entry in the Cambridge 
# Structural Database, then it will include bibliographic, chemical, 
# crystal, experimental, refinement or atomic coordinate data resulting 
# from the CCDC's data processing and validation procedures.
#
#######################################################################

data_ZURYUI
_symmetry_cell_setting           monoclinic
_symmetry_space_group_name_H-M   'P 21'
_symmetry_Int_Tables_number      4
_space_group_name_Hall           'P 2yb'
loop_
_symmetry_equiv_pos_site_id
_symmetry_equiv_pos_as_xyz
1 x,y,z
2 -x,1/2+y,-z
_cell_length_a                   13.327(3)
_cell_length_b                   9.2668(19)
_cell_length_c                   15.264(3)
_cell_angle_alpha                90
_cell_angle_beta                 104.44(3)
_cell_angle_gamma                90
_cell_volume                     1825.53
loop_
_atom_site_label
_atom_site_type_symbol
_atom_site_fract_x
_atom_site_fract_y
_atom_site_fract_z
Sm1 Sm 0.64301(3) 0.75461(4) 0.10404(2)
O1 O 0.67480(18) 0.7738(3) -0.04675(15)
H1 H 0.6222 0.7430 -0.0860
H2 H 0.7275 0.7234 -0.0488
O2 O 0.57520(18) 0.5346(3) 0.02317(15)
O3 O 0.6267(3) 0.9227(4) 0.2277(3)
H3 H 0.5687 0.9571 0.2311
C1 C 0.9111(3) 0.7842(4) 0.1329(2)
O4 O 0.5083(3) 0.6370(4) 0.1831(2)
H4 H 0.5322 0.5750 0.2240
H5 H 0.4740 0.5969 0.1344
N1 N 0.7931(3) 0.5847(4) 0.0963(3)
N2 N 0.8320(5) 0.8655(6) 0.1434(5)
N3 N 0.7927(5) 0.4504(6) 0.0611(4)
C2 C 0.8885(6) 0.6355(9) 0.1026(5)
C3 C 0.9473(7) 0.5308(10) 0.0727(7)
H6 H 1.0166 0.5381 0.0717
C4 C 1.0121(7) 0.8398(9) 0.1505(6)
H7 H 1.0660 0.7814 0.1429
C5 C 0.8847(7) 0.4175(9) 0.0458(6)
H8 H 0.9020 0.3320 0.0211
C6 C 0.8501(7) 1.0012(8) 0.1730(6)
H9 H 0.7956 1.0560 0.1831
C7 C 0.9515(7) 1.0645(11) 0.1897(6)
H10 H 0.9620 1.1605 0.2073
C8 C 1.0319(7) 0.9810(10) 0.1791(7)
H11 H 1.0988 1.0182 0.1910
O5 O 0.6318(3) 1.0116(3) 0.0524(2)
H12 H 0.5819 1.0624 0.0222
H13 H 0.6849 1.0344 0.0340
O6 O 0.7286(3) 0.6432(3) 0.2513(2)
H14 H 0.7277 0.5525 0.2412
C9 C 0.7080(6) 0.3483(8) 0.0535(6)
H15 H 0.7102 0.3118 0.1135
H16 H 0.7202 0.2673 0.0173
C10 C 0.5981(7) 0.4056(8) 0.0120(5)
O7 O 0.5340(4) 0.3130(5) -0.0288(4)
H17 H 0.674(7) 0.879(9) 0.274(6)
H18 H 0.721(7) 0.670(9) 0.303(6)
Sm1A Sm 0.35699(3) 0.25461(4) -0.10404(2)
O7A O 0.4660(4) 0.8130(5) 0.0288(4)
Sm2 Sm 0.64182(3) 0.26988(4) 0.56107(2)
C11 C 0.91060(18) 0.2591(3) 0.61160(15)
O8 O 0.50231(18) 0.2492(3) 0.64183(15)
H19 H 0.5261 0.3219 0.6744
O9 O 0.61854(18) 0.5192(3) 0.60392(15)
H20 H 0.5551 0.5338 0.6020
H21 H 0.6550 0.5342 0.6573
O10 O 0.71180(18) 0.3046(3) 0.73288(15)
H22 H 0.7702 0.3402 0.7317
H23 H 0.7188 0.2487 0.7781
N4 N 0.7808(3) 0.0850(4) 0.6306(3)
O11 O 0.6505(3) 0.4485(4) 0.4366(2)
H24 H 0.5904 0.4588 0.4015
H25 H 0.6916 0.4167 0.4066
O12 O 0.6947(3) 0.1500(4) 0.4340(3)
H26 H 0.7504 0.1053 0.4342
H27 H 0.6456 0.0907 0.4155
N5 N 0.7730(5) -0.0568(7) 0.6502(4)
C12 C 0.9376(7) -0.0173(10) 0.6571(7)
H28 H 1.0086 -0.0298 0.6652
C13 C 0.8674(7) -0.1194(10) 0.6661(7)
H29 H 0.8819 -0.2159 0.6807
C14 C 0.8810(6) 0.1107(10) 0.6331(6)
C15 C 1.0142(6) 0.2900(12) 0.6172(6)
H30 H 1.0653 0.2196 0.6330
N6 N 0.8363(3) 0.3541(3) 0.5900(2)
C16 C 0.8594(7) 0.4917(9) 0.5704(6)
H31 H 0.8067 0.5594 0.5530
C17 C 0.6772(6) -0.1230(8) 0.6554(6)
H32 H 0.6573 -0.0852 0.7079
H33 H 0.6884 -0.2259 0.6644
C18 C 0.9592(8) 0.5303(11) 0.5762(7)
H34 H 0.9740 0.6257 0.5652
C19 C 0.5880(6) -0.0993(8) 0.5721(5)
O13 O 0.5274(4) -0.2042(5) 0.5460(3)
O14 O 0.5732(4) 0.0249(5) 0.5379(4)
C20 C 1.0382(8) 0.4327(12) 0.5980(7)
H35 H 1.1060 0.4597 0.6000
H36 H 0.439(6) 0.225(10) 0.624(5)
Sm2A Sm 0.35818(3) -0.23012(4) 0.43893(2)
O13A O 0.4726(4) 0.2958(5) 0.4540(3)
Cl1 Cl 0.20284(18) 0.8234(2) 0.69670(17)
Cl2 Cl 0.74681(18) 1.0732(2) -0.10923(16)
Cl3 Cl 0.27351(16) 0.3036(2) 0.56989(14)
Cl4 Cl 0.5915(2) 0.5628(2) 0.79709(16)
O15 O 0.5539(2) 0.3561(2) 0.23604(16)
H37 H 0.4900 0.3383 0.2141
H38 H 0.5899 0.2850 0.2262
loop_
_geom_bond_atom_site_label_1
_geom_bond_atom_site_label_2
_geom_bond_site_symmetry_1
_geom_bond_site_symmetry_2
Sm1 O1 1_555 1_555
O1 H1 1_555 1_555
H2 O1 1_555 1_555
O2 Sm1 1_555 1_555
O3 Sm1 1_555 1_555
H3 O3 1_555 1_555
C1 N2 1_555 1_555
O4 Sm1 1_555 1_555
H4 O4 1_555 1_555
H5 O4 1_555 1_555
N1 Sm1 1_555 1_555
N2 Sm1 1_555 1_555
N3 N1 1_555 1_555
C2 C1 1_555 1_555
C3 C2 1_555 1_555
H6 C3 1_555 1_555
C4 C1 1_555 1_555
H7 C4 1_555 1_555
C5 N3 1_555 1_555
H8 C5 1_555 1_555
C6 N2 1_555 1_555
H9 C6 1_555 1_555
C7 C6 1_555 1_555
H10 C7 1_555 1_555
C8 C4 1_555 1_555
H11 C8 1_555 1_555
O5 Sm1 1_555 1_555
H12 O5 1_555 1_555
H13 O5 1_555 1_555
O6 Sm1 1_555 1_555
H14 O6 1_555 1_555
C9 N3 1_555 1_555
H15 C9 1_555 1_555
H16 C9 1_555 1_555
C10 O2 1_555 1_555
O7 C10 1_555 1_555
H17 O3 1_555 1_555
H18 O6 1_555 1_555
Sm2 O8 1_555 1_555
C11 C14 1_555 1_555
O8 H19 1_555 1_555
O9 Sm2 1_555 1_555
H20 O9 1_555 1_555
H21 O9 1_555 1_555
O10 Sm2 1_555 1_555
H22 O10 1_555 1_555
H23 O10 1_555 1_555
N4 Sm2 1_555 1_555
O11 Sm2 1_555 1_555
H24 O11 1_555 1_555
H25 O11 1_555 1_555
O12 Sm2 1_555 1_555
H26 O12 1_555 1_555
H27 O12 1_555 1_555
N5 N4 1_555 1_555
C12 H28 1_555 1_555
C13 N5 1_555 1_555
H29 C13 1_555 1_555
C14 N4 1_555 1_555
C15 C11 1_555 1_555
H30 C15 1_555 1_555
N6 Sm2 1_555 1_555
C16 N6 1_555 1_555
H31 C16 1_555 1_555
C17 N5 1_555 1_555
H32 C17 1_555 1_555
H33 C17 1_555 1_555
C18 C16 1_555 1_555
H34 C18 1_555 1_555
C19 C17 1_555 1_555
O13 C19 1_555 1_555
O14 Sm2 1_555 1_555
C20 C15 1_555 1_555
H35 C20 1_555 1_555
H36 O8 1_555 1_555
O15 H37 1_555 1_555
H38 O15 1_555 1_555
Sm1A O7 1_555 1_555
O7A Sm1 1_555 1_555
Sm2A O13 1_555 1_555
O13A Sm2 1_555 1_555
N1 C2 1_555 1_555
C3 C5 1_555 1_555
C7 C8 1_555 1_555
C9 C10 1_555 1_555
C11 N6 1_555 1_555
C12 C13 1_555 1_555
C12 C14 1_555 1_555
C18 C20 1_555 1_555
C19 O14 1_555 1_555

#END
