
#######################################################################
#
#                 Cambridge Crystallographic Data Centre
#                                CCDC 
#
#######################################################################
#
# If this CIF has been generated from an entry in the Cambridge 
# Structural Database, then it will include bibliographic, chemical, 
# crystal, experimental, refinement or atomic coordinate data resulting 
# from the CCDC's data processing and validation procedures.
#
#######################################################################

data_ZURZAP
_symmetry_cell_setting           monoclinic
_symmetry_space_group_name_H-M   'P 21/n'
_symmetry_Int_Tables_number      14
_space_group_name_Hall           '-P 2yn'
loop_
_symmetry_equiv_pos_site_id
_symmetry_equiv_pos_as_xyz
1 x,y,z
2 1/2-x,1/2+y,1/2-z
3 -x,-y,-z
4 1/2+x,1/2-y,1/2+z
_cell_length_a                   9.0426(18)
_cell_length_b                   11.391(2)
_cell_length_c                   12.816(3)
_cell_angle_alpha                90
_cell_angle_beta                 93.58(3)
_cell_angle_gamma                90
_cell_volume                     1317.53
loop_
_atom_site_label
_atom_site_type_symbol
_atom_site_fract_x
_atom_site_fract_y
_atom_site_fract_z
Eu1 Eu 0.13440(2) 0.556555(18) 0.187596(16)
O1 O -0.0784(4) 0.5687(3) 0.0725(3)
O2 O 0.0707(4) 0.7627(3) 0.2035(3)
N1 N -0.1004(5) 0.5516(3) 0.2850(3)
N2 N -0.2422(5) 0.5472(3) 0.2458(4)
C1 C -0.1928(5) 0.5071(4) 0.0601(4)
N3 N 0.1582(5) 0.5910(4) 0.3891(3)
C2 C -0.3319(6) 0.6058(5) 0.3073(4)
H1 H -0.4337 0.6149 0.2954
C3 C 0.0391(6) 0.6324(4) 0.4329(4)
C4 C -0.2481(6) 0.6491(5) 0.3896(4)
H2 H -0.2799 0.6924 0.4454
C5 C -0.2835(6) 0.4794(5) 0.1518(4)
H3 H -0.3871 0.4940 0.1317
H4 H -0.2730 0.3965 0.1680
C6 C 0.2894(6) 0.5991(6) 0.4445(4)
H5 H 0.3738 0.5695 0.4159
C7 C -0.1024(5) 0.6142(4) 0.3723(3)
C8 C 0.0465(8) 0.6860(5) 0.5307(4)
H6 H -0.0382 0.7159 0.5587
C9 C 0.3021(8) 0.6498(6) 0.5420(5)
H7 H 0.3940 0.6540 0.5787
C10 C 0.1808(8) 0.6933(6) 0.5840(5)
H8 H 0.1890 0.7284 0.6496
O3 O -0.2413(4) 0.4599(3) -0.0244(3)
O4 O 0.1500(4) 0.9390(3) 0.2582(3)
O5 O 0.3469(3) 0.6834(3) 0.2185(3)
C11 C 0.1689(5) 0.8331(4) 0.2365(4)
C12 C 0.3275(5) 0.7861(4) 0.2505(4)
O6 O 0.4255(4) 0.8536(3) 0.2899(3)
Eu1A Eu 0.36560(2) 1.056555(18) 0.312404(16)
Eu1B Eu -0.13440(2) 0.443445(18) -0.187596(16)
O3B O 0.2413(4) 0.5401(3) 0.0244(3)
O4A O 0.3500(4) 0.4390(3) 0.2418(3)
O6A O 0.0745(4) 0.3536(3) 0.2101(3)
loop_
_geom_bond_atom_site_label_1
_geom_bond_atom_site_label_2
_geom_bond_site_symmetry_1
_geom_bond_site_symmetry_2
Eu1 O1 1_555 1_555
O1 C1 1_555 1_555
O2 Eu1 1_555 1_555
N1 Eu1 1_555 1_555
N2 N1 1_555 1_555
C1 C5 1_555 1_555
N3 Eu1 1_555 1_555
C2 N2 1_555 1_555
H1 C2 1_555 1_555
C3 N3 1_555 1_555
C4 C2 1_555 1_555
H2 C4 1_555 1_555
C5 N2 1_555 1_555
H3 C5 1_555 1_555
H4 C5 1_555 1_555
C6 N3 1_555 1_555
H5 C6 1_555 1_555
C7 N1 1_555 1_555
C8 C3 1_555 1_555
H6 C8 1_555 1_555
C9 C6 1_555 1_555
H7 C9 1_555 1_555
C10 C8 1_555 1_555
H8 C10 1_555 1_555
O3 C1 1_555 1_555
O4 C11 1_555 1_555
O5 Eu1 1_555 1_555
C11 O2 1_555 1_555
C12 O5 1_555 1_555
O6 C12 1_555 1_555
Eu1A O4 1_555 1_555
Eu1B O3 1_555 1_555
O3B Eu1 1_555 1_555
O4A Eu1 1_555 1_555
O6A Eu1 1_555 1_555
C3 C7 1_555 1_555
C4 C7 1_555 1_555
C9 C10 1_555 1_555
C11 C12 1_555 1_555
O6 Eu1A 1_555 1_555

#END
