
#######################################################################
#
#                 Cambridge Crystallographic Data Centre
#                                CCDC 
#
#######################################################################
#
# If this CIF has been generated from an entry in the Cambridge 
# Structural Database, then it will include bibliographic, chemical, 
# crystal, experimental, refinement or atomic coordinate data resulting 
# from the CCDC's data processing and validation procedures.
#
#######################################################################

data_ZUSBIA
_symmetry_cell_setting           orthorhombic
_symmetry_space_group_name_H-M   'P n m a'
_symmetry_Int_Tables_number      62
_space_group_name_Hall           '-P 2ac 2n'
loop_
_symmetry_equiv_pos_site_id
_symmetry_equiv_pos_as_xyz
1 x,y,z
2 1/2-x,-y,1/2+z
3 -x,1/2+y,-z
4 1/2+x,1/2-y,1/2-z
5 -x,-y,-z
6 1/2+x,y,1/2-z
7 x,1/2-y,z
8 1/2-x,1/2+y,1/2+z
_cell_length_a                   10.0893(4)
_cell_length_b                   26.5212(11)
_cell_length_c                   9.7898(4)
_cell_angle_alpha                90
_cell_angle_beta                 90
_cell_angle_gamma                90
_cell_volume                     2619.56
loop_
_atom_site_label
_atom_site_type_symbol
_atom_site_fract_x
_atom_site_fract_y
_atom_site_fract_z
Zn1 Zn 0.88448(3) 0.544150(14) 0.08667(4)
C1 C 0.8681(4) 0.64041(14) 0.1215(4)
C2 C 0.8527(4) 0.69693(14) 0.1184(4)
C3 C 0.7474(3) 0.72293(13) 0.0499(3)
C4 C 0.6412(4) 0.69748(15) -0.0124(4)
H1 H 0.6393 0.6624 -0.0124
C5 C 0.5410(4) 0.72371(17) -0.0730(5)
H2 H 0.4719 0.7064 -0.1148
C6 C 0.9478(4) 0.72365(14) 0.1857(4)
H3 H 1.0141 0.7065 0.2325
C7 C 0.7603(3) 0.49228(13) 0.3350(3)
H4 H 0.8357 0.4737 0.3559
C8 C 0.6258(3) 0.54080(14) 0.2367(4)
H5 H 0.5882 0.5630 0.1741
N1 N 0.7485(2) 0.52187(11) 0.2243(3)
N2 N 0.5649(3) 0.52480(12) 0.3459(3)
N3 N 0.6521(3) 0.49282(11) 0.4104(3)
O1 O 0.8307(3) 0.61376(10) 0.0219(3)
O2 O 0.9221(3) 0.62073(10) 0.2206(3)
C1F C 0.8681(4) 0.85959(14) 0.1215(4)
C2F C 0.8527(4) 0.80307(14) 0.1184(4)
C3F C 0.7474(3) 0.77707(13) 0.0499(3)
C4F C 0.6412(4) 0.80252(15) -0.0124(4)
H1F H 0.6393 0.8376 -0.0124
C5F C 0.5410(4) 0.77629(17) -0.0730(5)
H2F H 0.4719 0.7936 -0.1148
C6F C 0.9478(4) 0.77635(14) 0.1857(4)
H3F H 1.0141 0.7935 0.2325
O1F O 0.8307(3) 0.88624(10) 0.0219(3)
O2F O 0.9221(3) 0.87927(10) 0.2206(3)
Zn1F Zn 0.88448(3) 0.955850(14) 0.08667(4)
C7F C 0.7603(3) 1.00772(13) 0.3350(3)
H4F H 0.8357 1.0263 0.3559
C8F C 0.6258(3) 0.95920(14) 0.2367(4)
H5F H 0.5882 0.9370 0.1741
N1F N 0.7485(2) 0.97813(11) 0.2243(3)
N2F N 0.5649(3) 0.97520(12) 0.3459(3)
N3F N 0.6521(3) 1.00718(11) 0.4104(3)
Zn1A Zn 0.61552(3) 0.455850(14) 0.58667(4)
Zn1C Zn 0.38448(3) 0.955850(14) 0.41333(4)
Zn1E Zn 0.38448(3) 0.544150(14) 0.41333(4)
Zn1G Zn 0.61552(3) 1.044150(14) 0.58667(4)
N2C N 1.0649(3) 0.97520(12) 0.1541(3)
N2E N 1.0649(3) 0.52480(12) 0.1541(3)
N3A N 0.8479(3) 0.50718(11) -0.0896(3)
N3G N 0.8479(3) 0.99282(11) -0.0896(3)
C9 C 0.6182(4) 0.3972(2) 0.1112(5)
C10 C 0.7828(5) 0.3521(3) 0.0045(5)
H6 H 0.8611 0.3621 -0.0463
H7 H 0.7541 0.3191 -0.0259
C11 C 0.8076(7) 0.3530(3) 0.1559(6)
H8 H 0.8228 0.3193 0.1913
H9 H 0.8828 0.3742 0.1785
N4 N 0.6805(4) 0.38819(17) -0.0083(4)
H10 H 0.6602 0.4028 -0.0839
N5 N 0.6868(5) 0.37376(19) 0.2073(4)
H11 H 0.6616 0.3713 0.2910
O3 O 0.5172(4) 0.42149(17) 0.1252(5)
loop_
_geom_bond_atom_site_label_1
_geom_bond_atom_site_label_2
_geom_bond_site_symmetry_1
_geom_bond_site_symmetry_2
Zn1 N1 1_555 1_555
C1 C2 1_555 1_555
C2 C3 1_555 1_555
C3 C4 1_555 1_555
C4 H1 1_555 1_555
C5 C4 1_555 1_555
H2 C5 1_555 1_555
C6 C2 1_555 1_555
H3 C6 1_555 1_555
C7 H4 1_555 1_555
C8 H5 1_555 1_555
N1 C7 1_555 1_555
N2 C8 1_555 1_555
N3 C7 1_555 1_555
O1 Zn1 1_555 1_555
O2 Zn1 1_555 1_555
C9 N4 1_555 1_555
C10 H6 1_555 1_555
H7 C10 1_555 1_555
C11 C10 1_555 1_555
H8 C11 1_555 1_555
H9 C11 1_555 1_555
N4 C10 1_555 1_555
H10 N4 1_555 1_555
N5 C9 1_555 1_555
H11 N5 1_555 1_555
O3 C9 1_555 1_555
C1F C2F 1_555 1_555
C2F C3F 1_555 1_555
C3F C3 1_555 1_555
C4F C3F 1_555 1_555
H1F C4F 1_555 1_555
C5F C5 1_555 1_555
H2F C5F 1_555 1_555
C6F C6 1_555 1_555
H3F C6F 1_555 1_555
O1F C1F 1_555 1_555
O2F C1F 1_555 1_555
Zn1F O1F 1_555 1_555
C7F H4F 1_555 1_555
C8F H5F 1_555 1_555
N1F Zn1F 1_555 1_555
N2F C8F 1_555 1_555
N3F C7F 1_555 1_555
Zn1A N3 1_555 1_555
Zn1C N2F 1_555 1_555
Zn1E N2 1_555 1_555
Zn1G N3F 1_555 1_555
N2C Zn1F 1_555 1_555
N2E Zn1 1_555 1_555
N3A Zn1 1_555 1_555
N3G Zn1F 1_555 1_555
C1 O1 1_555 1_555
C1 O2 1_555 1_555
C8 N1 1_555 1_555
N2 N3 1_555 1_555
C11 N5 1_555 1_555
C2F C6F 1_555 1_555
C4F C5F 1_555 1_555
O2F Zn1F 1_555 1_555
C7F N1F 1_555 1_555
C8F N1F 1_555 1_555
N2F N3F 1_555 1_555

#END
