
#######################################################################
#
#                 Cambridge Crystallographic Data Centre
#                                CCDC 
#
#######################################################################
#
# If this CIF has been generated from an entry in the Cambridge 
# Structural Database, then it will include bibliographic, chemical, 
# crystal, experimental, refinement or atomic coordinate data resulting 
# from the CCDC's data processing and validation procedures.
#
#######################################################################

data_ZUSHEC
_symmetry_cell_setting           tetragonal
_symmetry_space_group_name_H-M   'I 41/a'
_symmetry_Int_Tables_number      88
_space_group_name_Hall           '-I 4ad'
loop_
_symmetry_equiv_pos_site_id
_symmetry_equiv_pos_as_xyz
1 x,y,z
2 1/2-x,-y,1/2+z
3 3/4-y,1/4+x,1/4+z
4 3/4+y,3/4-x,3/4+z
5 1/2+x,1/2+y,1/2+z
6 -x,1/2-y,z
7 1/4-y,3/4+x,3/4+z
8 1/4+y,1/4-x,1/4+z
9 -x,-y,-z
10 1/2+x,y,1/2-z
11 1/4+y,3/4-x,3/4-z
12 1/4-y,1/4+x,1/4-z
13 1/2-x,1/2-y,1/2-z
14 x,1/2+y,-z
15 3/4+y,1/4-x,1/4-z
16 3/4-y,3/4+x,3/4-z
_cell_length_a                   17.0180(14)
_cell_length_b                   17.0180(14)
_cell_length_c                   16.894(3)
_cell_angle_alpha                90
_cell_angle_beta                 90
_cell_angle_gamma                90
_cell_volume                     4892.71
loop_
_atom_site_label
_atom_site_type_symbol
_atom_site_fract_x
_atom_site_fract_y
_atom_site_fract_z
Sr1 Sr 0.5000 0.7500 0.01904(6)
O1 O 0.5028(4) 0.6341(4) 0.1344(4)
C1 C 0.6122(5) 0.4331(5) 0.0587(5)
O2 O 0.3944(4) 0.5603(4) 0.1502(4)
N1 N 0.5883(4) 0.5052(5) 0.0844(4)
C2 C 0.4658(5) 0.5705(5) 0.1313(5)
C3 C 0.5099(5) 0.5009(5) 0.1019(5)
C4 C 0.4884(5) 0.4252(5) 0.0850(5)
C5 C 0.6941(5) 0.4127(6) 0.0399(6)
C6 C 0.7198(6) 0.3362(6) 0.0489(6)
H1 H 0.6842 0.2970 0.0625
C7 C 0.7484(6) 0.4703(7) 0.0174(7)
H2 H 0.7318 0.5219 0.0103
C8 C 0.7980(7) 0.3176(8) 0.0377(7)
H3 H 0.8147 0.2659 0.0442
N2 N 0.5522(4) 0.3830(4) 0.0573(4)
C9 C 0.8259(7) 0.4511(10) 0.0056(9)
H4 H 0.8613 0.4897 -0.0101
O3 O 0.3536(4) 0.4221(4) 0.1243(5)
H5 H 0.3682 0.4660 0.1379
O4 O 0.4041(4) 0.3167(4) 0.0702(4)
C10 C 0.4119(5) 0.3845(5) 0.0925(5)
C11 C 0.8516(7) 0.3751(10) 0.0169(8)
O5 O 0.9275(5) 0.3450(5) 0.0149(4)
C12 C 0.9907(7) 0.4032(7) 0.0084(7)
H6 H 0.9792 0.4389 -0.0340
H7 H 1.0395 0.3769 -0.0022
H8 H 0.9948 0.4319 0.0571
H9 H 0.612(8) 0.540(8) 0.092(8)
O1E O 0.4972(4) 0.8659(4) 0.1344(4)
C1E C 0.3878(5) 1.0669(5) 0.0587(5)
O2E O 0.6056(4) 0.9397(4) 0.1502(4)
N1E N 0.4117(4) 0.9948(5) 0.0844(4)
C2E C 0.5342(5) 0.9295(5) 0.1313(5)
C3E C 0.4901(5) 0.9991(5) 0.1019(5)
C4E C 0.5116(5) 1.0748(5) 0.0850(5)
C5E C 0.3059(5) 1.0873(6) 0.0399(6)
C6E C 0.2802(6) 1.1638(6) 0.0489(6)
H1E H 0.3158 1.2030 0.0625
C7E C 0.2516(6) 1.0297(7) 0.0174(7)
H2E H 0.2682 0.9781 0.0103
C8E C 0.2020(7) 1.1824(8) 0.0377(7)
H3E H 0.1853 1.2341 0.0442
N2E N 0.4478(4) 1.1170(4) 0.0573(4)
C9E C 0.1741(7) 1.0489(10) 0.0056(9)
H4E H 0.1387 1.0103 -0.0101
O3E O 0.6464(4) 1.0779(4) 0.1243(5)
H5E H 0.6318 1.0340 0.1379
O4E O 0.5959(4) 1.1833(4) 0.0702(4)
C10E C 0.5881(5) 1.1155(5) 0.0925(5)
C11E C 0.1484(7) 1.1249(10) 0.0169(8)
O5E O 0.0725(5) 1.1550(5) 0.0149(4)
C12E C 0.0093(7) 1.0968(7) 0.0084(7)
H6E H 0.0208 1.0611 -0.0340
H7E H -0.0395 1.1231 -0.0022
H8E H 0.0052 1.0681 0.0571
H9E H 0.388(8) 0.960(8) 0.092(8)
Sr1H Sr 0.5000 0.2500 -0.01904(6)
Sr1H_2 Sr 0.5000 1.2500 -0.01904(6)
Sr1K Sr 0.5000 0.7500 0.23096(6)
O1K O 0.6159(4) 0.7528(4) 0.1156(4)
O1N O 0.3841(4) 0.7472(4) 0.1156(4)
N2H N 0.4478(4) 0.6170(4) -0.0573(4)
N2M N 0.5522(4) 0.8830(4) -0.0573(4)
O4H O 0.5959(4) 0.6833(4) -0.0702(4)
O4M O 0.4041(4) 0.8167(4) -0.0702(4)
loop_
_geom_bond_atom_site_label_1
_geom_bond_atom_site_label_2
_geom_bond_site_symmetry_1
_geom_bond_site_symmetry_2
Sr1 O1 1_555 1_555
O1 C2 1_555 1_555
C1 N1 1_555 1_555
O2 C2 1_555 1_555
N1 C3 1_555 1_555
C2 C3 1_555 1_555
C3 C4 1_555 1_555
C4 N2 1_555 1_555
C5 C1 1_555 1_555
C6 C5 1_555 1_555
H1 C6 1_555 1_555
C7 C5 1_555 1_555
H2 C7 1_555 1_555
C8 C6 1_555 1_555
H3 C8 1_555 1_555
N2 C1 1_555 1_555
C9 C7 1_555 1_555
H4 C9 1_555 1_555
O3 H5 1_555 1_555
O4 C10 1_555 1_555
C10 C4 1_555 1_555
C11 C8 1_555 1_555
O5 C11 1_555 1_555
C12 O5 1_555 1_555
H6 C12 1_555 1_555
H7 C12 1_555 1_555
H8 C12 1_555 1_555
H9 N1 1_555 1_555
O1E Sr1 1_555 1_555
C1E N1E 1_555 1_555
O2E C2E 1_555 1_555
N1E C3E 1_555 1_555
C2E O1E 1_555 1_555
C3E C2E 1_555 1_555
C4E C3E 1_555 1_555
C5E C1E 1_555 1_555
C6E C5E 1_555 1_555
H1E C6E 1_555 1_555
C7E C5E 1_555 1_555
H2E C7E 1_555 1_555
C8E C6E 1_555 1_555
H3E C8E 1_555 1_555
N2E C1E 1_555 1_555
C9E C7E 1_555 1_555
H4E C9E 1_555 1_555
O3E H5E 1_555 1_555
O4E C10E 1_555 1_555
C10E C4E 1_555 1_555
C11E C8E 1_555 1_555
O5E C11E 1_555 1_555
C12E O5E 1_555 1_555
H6E C12E 1_555 1_555
H7E C12E 1_555 1_555
H8E C12E 1_555 1_555
H9E N1E 1_555 1_555
Sr1H N2 1_555 1_555
Sr1H_2 N2E 1_555 1_555
Sr1K O1 1_555 1_555
O1K Sr1 1_555 1_555
O1N Sr1 1_555 1_555
N2H Sr1 1_555 1_555
N2M Sr1 1_555 1_555
O4H Sr1 1_555 1_555
O4M Sr1 1_555 1_555
C9 C11 1_555 1_555
O3 C10 1_555 1_555
O4 Sr1H 1_555 1_555
O1E Sr1K 1_555 1_555
C4E N2E 1_555 1_555
C9E C11E 1_555 1_555
O3E C10E 1_555 1_555
O4E Sr1H_2 1_555 1_555
Sr1K O1K 1_555 1_555
Sr1K O1N 1_555 1_555

#END
