
#######################################################################
#
#                 Cambridge Crystallographic Data Centre
#                                CCDC 
#
#######################################################################
#
# If this CIF has been generated from an entry in the Cambridge 
# Structural Database, then it will include bibliographic, chemical, 
# crystal, experimental, refinement or atomic coordinate data resulting 
# from the CCDC's data processing and validation procedures.
#
#######################################################################

data_ZUSJUU
_symmetry_cell_setting           monoclinic
_symmetry_space_group_name_H-M   'C 2/c'
_symmetry_Int_Tables_number      15
_space_group_name_Hall           '-C 2yn'
loop_
_symmetry_equiv_pos_site_id
_symmetry_equiv_pos_as_xyz
1 x,y,z
2 -x,y,1/2-z
3 1/2+x,1/2+y,z
4 1/2-x,1/2+y,1/2-z
5 -x,-y,-z
6 x,-y,1/2+z
7 1/2-x,1/2-y,-z
8 1/2+x,1/2-y,1/2+z
_cell_length_a                   20.5678(12)
_cell_length_b                   17.6161(7)
_cell_length_c                   16.6561(7)
_cell_angle_alpha                90
_cell_angle_beta                 111.951(6)
_cell_angle_gamma                90
_cell_volume                     5597.4
loop_
_atom_site_label
_atom_site_type_symbol
_atom_site_fract_x
_atom_site_fract_y
_atom_site_fract_z
Cd1 Cd 0.16662(2) 0.55423(2) 0.38647(2)
O1 O 0.1658(3) 0.6448(3) 0.2765(3)
O2 O 0.2423(4) 0.5542(4) 0.2998(3)
O3 O 0.0471(3) 0.5863(3) 0.3050(3)
O4 O 0.0000 0.4818(4) 0.2500
N1 N 0.0000 0.5510(4) 0.2500
C1 C 0.2121(5) 0.6127(5) 0.2589(4)
C2 C 0.2382(5) 0.6370(5) 0.1906(4)
H1 H 0.2737 0.6071 0.1825
C3 C 0.2169(5) 0.6934(5) 0.1435(4)
H2 H 0.1838 0.7237 0.1563
C4 C 0.2351(4) 0.7211(4) 0.0698(4)
C5 C 0.2785(4) 0.6828(4) 0.0375(4)
H3 H 0.2988 0.6360 0.0631
C6 C 0.2067(4) 0.7887(5) 0.0319(4)
H4 H 0.1767 0.8163 0.0531
N2 N 0.1616(3) 0.6612(3) 0.4687(3)
N3 N 0.2733(3) 0.5694(3) 0.5035(3)
C7 C 0.1076(4) 0.7080(4) 0.4457(5)
H5 H 0.0692 0.6978 0.3932
C8 C 0.1033(5) 0.7723(4) 0.4942(5)
H6 H 0.0632 0.8042 0.4762
C9 C 0.1601(6) 0.7862(5) 0.5689(6)
H7 H 0.1598 0.8288 0.6037
C10 C 0.2179(5) 0.7384(5) 0.5936(5)
H8 H 0.2574 0.7481 0.6451
C11 C 0.2170(4) 0.6757(4) 0.5415(4)
C12 C 0.2771(4) 0.6221(5) 0.5631(4)
C13 C 0.3344(5) 0.6287(7) 0.6400(6)
H9 H 0.3348 0.6649 0.6825
C14 C 0.3890(6) 0.5831(8) 0.6531(6)
H10 H 0.4296 0.5876 0.7045
C15 C 0.3864(5) 0.5287(7) 0.5913(7)
H11 H 0.4250 0.4956 0.6002
C16 C 0.3274(4) 0.5235(5) 0.5172(5)
H12 H 0.3254 0.4863 0.4751
N4 N 0.1193(2) 0.4835(3) 0.4776(3)
N5 N 0.1498(3) 0.4275(3) 0.3443(3)
C17 C 0.1086(3) 0.5121(4) 0.5458(3)
H13 H 0.1245 0.5622 0.5636
C18 C 0.0760(3) 0.4736(4) 0.5921(4)
H14 H 0.0688 0.4963 0.6398
C19 C 0.0542(3) 0.4003(4) 0.5660(4)
H15 H 0.0322 0.3712 0.5968
C20 C 0.0641(3) 0.3697(4) 0.4963(4)
H16 H 0.0484 0.3197 0.4778
C21 C 0.0978(3) 0.4126(3) 0.4520(3)
C22 C 0.1127(3) 0.3833(3) 0.3772(4)
C23 C 0.0882(4) 0.3122(3) 0.3416(4)
H17 H 0.0619 0.2815 0.3655
C24 C 0.1024(5) 0.2872(4) 0.2717(5)
H18 H 0.0859 0.2392 0.2462
C25 C 0.1409(5) 0.3331(5) 0.2396(5)
H19 H 0.1507 0.3175 0.1907
C26 C 0.1655(4) 0.4019(4) 0.2785(4)
H20 H 0.1944 0.4318 0.2578
O1F O 0.3342(3) 0.8552(3) -0.2765(3)
O2F O 0.2577(4) 0.9458(4) -0.2998(3)
C1F C 0.2879(5) 0.8873(5) -0.2589(4)
C2F C 0.2618(5) 0.8630(5) -0.1906(4)
H1F H 0.2263 0.8929 -0.1825
C3F C 0.2831(5) 0.8066(5) -0.1435(4)
H2F H 0.3162 0.7763 -0.1563
C4F C 0.2649(4) 0.7789(4) -0.0698(4)
C5F C 0.2215(4) 0.8172(4) -0.0375(4)
H3F H 0.2012 0.8640 -0.0631
C6F C 0.2933(4) 0.7113(5) -0.0319(4)
H4F H 0.3233 0.6837 -0.0531
O3A O -0.0471(3) 0.5863(3) 0.1950(3)
Cd1A Cd -0.16662(2) 0.55423(2) 0.11353(2)
N2A N -0.1616(3) 0.6612(3) 0.0313(3)
N3A N -0.2733(3) 0.5694(3) -0.0035(3)
C7A C -0.1076(4) 0.7080(4) 0.0543(5)
H5A H -0.0692 0.6978 0.1068
C8A C -0.1033(5) 0.7723(4) 0.0058(5)
H6A H -0.0632 0.8042 0.0238
C9A C -0.1601(6) 0.7862(5) -0.0689(6)
H7A H -0.1598 0.8288 -0.1037
C10A C -0.2179(5) 0.7384(5) -0.0936(5)
H8A H -0.2574 0.7481 -0.1451
C11A C -0.2170(4) 0.6757(4) -0.0415(4)
C12A C -0.2771(4) 0.6221(5) -0.0631(4)
C13A C -0.3344(5) 0.6287(7) -0.1400(6)
H9A H -0.3348 0.6649 -0.1825
C14A C -0.3890(6) 0.5831(8) -0.1531(6)
H10A H -0.4296 0.5876 -0.2045
C15A C -0.3864(5) 0.5287(7) -0.0913(7)
H11A H -0.4250 0.4956 -0.1002
C16A C -0.3274(4) 0.5235(5) -0.0172(5)
H12A H -0.3254 0.4863 0.0249
N4A N -0.1193(2) 0.4835(3) 0.0224(3)
N5A N -0.1498(3) 0.4275(3) 0.1557(3)
C17A C -0.1086(3) 0.5121(4) -0.0458(3)
H13A H -0.1245 0.5622 -0.0636
C18A C -0.0760(3) 0.4736(4) -0.0921(4)
H14A H -0.0688 0.4963 -0.1398
C19A C -0.0542(3) 0.4003(4) -0.0660(4)
H15A H -0.0322 0.3712 -0.0968
C20A C -0.0641(3) 0.3697(4) 0.0037(4)
H16A H -0.0484 0.3197 0.0222
C21A C -0.0978(3) 0.4126(3) 0.0480(3)
C22A C -0.1127(3) 0.3833(3) 0.1228(4)
C23A C -0.0882(4) 0.3122(3) 0.1584(4)
H17A H -0.0619 0.2815 0.1345
C24A C -0.1024(5) 0.2872(4) 0.2283(5)
H18A H -0.0859 0.2392 0.2538
C25A C -0.1409(5) 0.3331(5) 0.2604(5)
H19A H -0.1507 0.3175 0.3093
C26A C -0.1655(4) 0.4019(4) 0.2215(4)
H20A H -0.1944 0.4318 0.2422
Cd1F Cd 0.33338(2) 0.94577(2) -0.38647(2)
O1A O -0.1658(3) 0.6448(3) 0.2235(3)
O2A O -0.2423(4) 0.5542(4) 0.2002(3)
O5 O 0.4491(3) 0.2495(3) 0.2866(3)
H21 H 0.4096 0.2311 0.2554
H22 H 0.4409 0.2959 0.2914
O6 O 0.4200(4) 0.3621(5) 0.3866(6)
H23 H 0.4555 0.3404 0.4291
H24 H 0.3934 0.3804 0.3960
O7 O 0.3648(15) 0.4939(12) 0.3064(18)
H25 H 0.3242 0.5115 0.3015
H26 H 0.3811 0.4503 0.3290
N6 N 0.5116(9) 0.3751(8) 0.6056(8)
O9 O 0.5347(6) 0.3885(6) 0.6870(7)
O10 O 0.5146(10) 0.4174(7) 0.5461(9)
O11 O 0.4764(9) 0.3177(8) 0.5743(12)
O8? O 0.384(2) 0.5251(17) 0.3305(19)
loop_
_geom_bond_atom_site_label_1
_geom_bond_atom_site_label_2
_geom_bond_site_symmetry_1
_geom_bond_site_symmetry_2
Cd1 O1 1_555 1_555
O1 C1 1_555 1_555
O2 Cd1 1_555 1_555
O3 Cd1 1_555 1_555
O4 N1 1_555 1_555
N1 O3 1_555 1_555
C1 O2 1_555 1_555
C2 C1 1_555 1_555
H1 C2 1_555 1_555
C3 C2 1_555 1_555
H2 C3 1_555 1_555
C4 C3 1_555 1_555
C5 C4 1_555 1_555
H3 C5 1_555 1_555
C6 C4 1_555 1_555
H4 C6 1_555 1_555
N2 Cd1 1_555 1_555
N3 Cd1 1_555 1_555
C7 N2 1_555 1_555
H5 C7 1_555 1_555
C8 C7 1_555 1_555
H6 C8 1_555 1_555
C9 C8 1_555 1_555
H7 C9 1_555 1_555
C10 C9 1_555 1_555
H8 C10 1_555 1_555
C11 N2 1_555 1_555
C12 N3 1_555 1_555
C13 C12 1_555 1_555
H9 C13 1_555 1_555
C14 C13 1_555 1_555
H10 C14 1_555 1_555
C15 C14 1_555 1_555
H11 C15 1_555 1_555
C16 N3 1_555 1_555
H12 C16 1_555 1_555
N4 Cd1 1_555 1_555
N5 Cd1 1_555 1_555
C17 N4 1_555 1_555
H13 C17 1_555 1_555
C18 C17 1_555 1_555
H14 C18 1_555 1_555
C19 C18 1_555 1_555
H15 C19 1_555 1_555
C20 C19 1_555 1_555
H16 C20 1_555 1_555
C21 N4 1_555 1_555
C22 N5 1_555 1_555
C23 C22 1_555 1_555
H17 C23 1_555 1_555
C24 C23 1_555 1_555
H18 C24 1_555 1_555
C25 C24 1_555 1_555
H19 C25 1_555 1_555
C26 N5 1_555 1_555
H20 C26 1_555 1_555
O5 H21 1_555 1_555
H22 O5 1_555 1_555
O6 H23 1_555 1_555
H24 O6 1_555 1_555
O7 H25 1_555 1_555
H26 O7 1_555 1_555
N6 O9 1_555 1_555
O10 N6 1_555 1_555
O11 N6 1_555 1_555
O1F C1F 1_555 1_555
O2F C1F 1_555 1_555
C1F C2F 1_555 1_555
C2F H1F 1_555 1_555
C3F C2F 1_555 1_555
H2F C3F 1_555 1_555
C4F C3F 1_555 1_555
C5F C6 1_555 1_555
H3F C5F 1_555 1_555
C6F C5 1_555 1_555
H4F C6F 1_555 1_555
O3A N1 1_555 1_555
Cd1A O3A 1_555 1_555
N2A Cd1A 1_555 1_555
N3A Cd1A 1_555 1_555
C7A N2A 1_555 1_555
H5A C7A 1_555 1_555
C8A C7A 1_555 1_555
H6A C8A 1_555 1_555
C9A C8A 1_555 1_555
H7A C9A 1_555 1_555
C10A C9A 1_555 1_555
H8A C10A 1_555 1_555
C11A N2A 1_555 1_555
C12A N3A 1_555 1_555
C13A C12A 1_555 1_555
H9A C13A 1_555 1_555
C14A C13A 1_555 1_555
H10A C14A 1_555 1_555
C15A C14A 1_555 1_555
H11A C15A 1_555 1_555
C16A N3A 1_555 1_555
H12A C16A 1_555 1_555
N4A Cd1A 1_555 1_555
N5A Cd1A 1_555 1_555
C17A N4A 1_555 1_555
H13A C17A 1_555 1_555
C18A C17A 1_555 1_555
H14A C18A 1_555 1_555
C19A C18A 1_555 1_555
H15A C19A 1_555 1_555
C20A C19A 1_555 1_555
H16A C20A 1_555 1_555
C21A N4A 1_555 1_555
C22A N5A 1_555 1_555
C23A C22A 1_555 1_555
H17A C23A 1_555 1_555
C24A C23A 1_555 1_555
H18A C24A 1_555 1_555
C25A C24A 1_555 1_555
H19A C25A 1_555 1_555
C26A N5A 1_555 1_555
H20A C26A 1_555 1_555
Cd1F O1F 1_555 1_555
O1A Cd1A 1_555 1_555
O2A Cd1A 1_555 1_555
C10 C11 1_555 1_555
C11 C12 1_555 1_555
C15 C16 1_555 1_555
C20 C21 1_555 1_555
C21 C22 1_555 1_555
C25 C26 1_555 1_555
O2F Cd1F 1_555 1_555
C4F C5F 1_555 1_555
C4F C6F 1_555 1_555
C10A C11A 1_555 1_555
C11A C12A 1_555 1_555
C15A C16A 1_555 1_555
C20A C21A 1_555 1_555
C21A C22A 1_555 1_555
C25A C26A 1_555 1_555

#END
