
#######################################################################
#
#                 Cambridge Crystallographic Data Centre
#                                CCDC 
#
#######################################################################
#
# If this CIF has been generated from an entry in the Cambridge 
# Structural Database, then it will include bibliographic, chemical, 
# crystal, experimental, refinement or atomic coordinate data resulting 
# from the CCDC's data processing and validation procedures.
#
#######################################################################

data_ZUSJOO
_symmetry_cell_setting           triclinic
_symmetry_space_group_name_H-M   'P -1'
_symmetry_Int_Tables_number      2
_space_group_name_Hall           '-P 1'
loop_
_symmetry_equiv_pos_site_id
_symmetry_equiv_pos_as_xyz
1 x,y,z
2 -x,-y,-z
_cell_length_a                   10.1632(3)
_cell_length_b                   13.1218(4)
_cell_length_c                   14.7388(4)
_cell_angle_alpha                96.459(3)
_cell_angle_beta                 107.840(3)
_cell_angle_gamma                98.789(3)
_cell_volume                     1822.37
loop_
_atom_site_label
_atom_site_type_symbol
_atom_site_fract_x
_atom_site_fract_y
_atom_site_fract_z
Cd1 Cd 0.18193(4) 0.17443(3) 0.16003(3)
Cd2 Cd 0.01765(4) 0.19098(3) 0.36937(3)
O1 O 0.4225(5) 0.1845(4) 0.1502(3)
O2 O 0.2817(4) 0.0327(4) 0.1317(3)
O3 O 0.4262(6) -0.2873(4) 0.0307(5)
O4 O 0.6424(5) -0.2872(4) 0.0395(3)
O5 O 0.9851(4) 0.0457(4) 0.1263(4)
O6 O 0.9352(4) 0.1825(3) 0.2014(3)
N1 N 0.0662(5) 0.2358(4) 0.0223(4)
N2 N 0.2558(5) 0.3551(4) 0.1852(4)
C1 C -0.0412(7) 0.1766(5) -0.0512(5)
H1 H -0.0681 0.1062 -0.0488
C2 C -0.1134(8) 0.2167(6) -0.1308(5)
H2 H -0.1880 0.1743 -0.1808
C3 C -0.0723(8) 0.3206(6) -0.1339(5)
H3 H -0.1188 0.3490 -0.1868
C4 C 0.0384(8) 0.3831(6) -0.0585(5)
H4 H 0.0671 0.4533 -0.0605
C5 C 0.1057(7) 0.3392(5) 0.0199(5)
C6 C 0.2213(7) 0.4008(5) 0.1062(5)
C7 C 0.2891(8) 0.5012(6) 0.1061(6)
H5 H 0.2653 0.5317 0.0508
C8 C 0.3934(8) 0.5551(6) 0.1906(6)
H6 H 0.4403 0.6223 0.1923
C9 C 0.4266(8) 0.5085(6) 0.2715(6)
H7 H 0.4946 0.5441 0.3288
C10 C 0.3572(7) 0.4084(5) 0.2658(5)
H8 H 0.3815 0.3762 0.3199
C11 C 0.3974(6) 0.0862(5) 0.1362(4)
C12 C 0.5110(6) 0.0293(5) 0.1241(4)
C13 C 0.4790(6) -0.0785(5) 0.0955(4)
H9 H 0.3889 -0.1160 0.0855
C14 C 0.5829(7) -0.1293(5) 0.0821(4)
C15 C 0.7198(6) -0.0762(5) 0.0981(4)
H10 H 0.7878 -0.1118 0.0877
C16 C 0.7524(6) 0.0316(5) 0.1302(4)
C17 C 0.6468(6) 0.0840(5) 0.1410(4)
H11 H 0.6677 0.1563 0.1597
N3 N 0.5480(6) -0.2433(4) 0.0481(4)
C18 C 0.9008(6) 0.0899(5) 0.1537(4)
O7 O 0.3410(6) -0.2630(4) 0.3761(5)
O8 O 0.5659(6) -0.2485(4) 0.4140(4)
O9 O 0.8416(4) 0.0621(4) 0.3659(3)
O10 O 0.7653(4) 0.2120(3) 0.3662(3)
O11 O 0.2439(5) 0.1871(3) 0.3262(3)
O12 O 0.1526(5) 0.0612(4) 0.3913(4)
N4 N 0.0906(5) 0.3671(4) 0.4152(4)
N5 N 0.0810(6) 0.2298(4) 0.5376(4)
C19 C 0.0870(7) 0.4331(5) 0.3524(5)
H12 H 0.0507 0.4065 0.2866
C20 C 0.1354(8) 0.5397(6) 0.3819(5)
H13 H 0.1284 0.5840 0.3363
C21 C 0.1941(8) 0.5801(6) 0.4791(6)
H14 H 0.2304 0.6514 0.5000
C22 C 0.1980(8) 0.5124(6) 0.5448(5)
H15 H 0.2358 0.5379 0.6109
C23 C 0.1451(6) 0.4059(5) 0.5117(5)
C24 C 0.1381(7) 0.3307(5) 0.5791(5)
C25 C 0.1825(8) 0.3597(6) 0.6788(5)
H16 H 0.2243 0.4288 0.7073
C26 C 0.1643(9) 0.2860(7) 0.7353(5)
H17 H 0.1930 0.3052 0.8022
C27 C 0.1032(9) 0.1833(7) 0.6928(6)
H18 H 0.0890 0.1324 0.7298
C28 C 0.0642(8) 0.1588(6) 0.5935(5)
H19 H 0.0243 0.0898 0.5641
N6 N 0.4592(6) -0.2118(4) 0.3923(4)
C29 C 0.4726(6) -0.1006(5) 0.3834(4)
C30 C 0.5999(6) -0.0474(5) 0.3810(4)
H20 H 0.6752 -0.0811 0.3851
C31 C 0.6117(6) 0.0580(5) 0.3722(4)
C32 C 0.4973(6) 0.1060(5) 0.3654(4)
H21 H 0.5051 0.1760 0.3586
C33 C 0.3715(6) 0.0508(5) 0.3686(4)
C34 C 0.3585(6) -0.0542(5) 0.3783(4)
H22 H 0.2750 -0.0920 0.3811
C35 C 0.7495(6) 0.1157(5) 0.3680(4)
C36 C 0.2466(6) 0.1023(5) 0.3613(4)
Cd1_2 Cd 1.18193(4) 0.17443(3) 0.16003(3)
Cd2_2 Cd 1.01765(4) 0.19098(3) 0.36937(3)
O5_2 O -0.0149(4) 0.0457(4) 0.1263(4)
O6_2 O -0.0648(4) 0.1825(3) 0.2014(3)
O9_2 O -0.1584(4) 0.0621(4) 0.3659(3)
O10_2 O -0.2347(4) 0.2120(3) 0.3662(3)
O13 O 0.6718(6) 0.3481(4) 0.2324(4)
H23 H 0.5834 0.3254 0.2157
H24 H 0.7149 0.3113 0.2708
O14 O 0.8693(6) 0.3845(4) 0.1239(4)
H25 H 0.9382 0.4281 0.1648
H26 H 0.7984 0.3796 0.1433
loop_
_geom_bond_atom_site_label_1
_geom_bond_atom_site_label_2
_geom_bond_site_symmetry_1
_geom_bond_site_symmetry_2
Cd1 O1 1_555 1_555
Cd2 O11 1_555 1_555
O1 C11 1_555 1_555
O2 Cd1 1_555 1_555
O3 N3 1_555 1_555
O4 N3 1_555 1_555
O5 C18 1_555 1_555
O6 C18 1_555 1_555
N1 Cd1 1_555 1_555
N2 Cd1 1_555 1_555
C1 N1 1_555 1_555
H1 C1 1_555 1_555
C2 C1 1_555 1_555
H2 C2 1_555 1_555
C3 C2 1_555 1_555
H3 C3 1_555 1_555
C4 C3 1_555 1_555
H4 C4 1_555 1_555
C5 N1 1_555 1_555
C6 N2 1_555 1_555
C7 C6 1_555 1_555
H5 C7 1_555 1_555
C8 C7 1_555 1_555
H6 C8 1_555 1_555
C9 C8 1_555 1_555
H7 C9 1_555 1_555
C10 N2 1_555 1_555
H8 C10 1_555 1_555
C11 O2 1_555 1_555
C12 C11 1_555 1_555
C13 C12 1_555 1_555
H9 C13 1_555 1_555
C14 C13 1_555 1_555
C15 C14 1_555 1_555
H10 C15 1_555 1_555
C16 C15 1_555 1_555
C17 C12 1_555 1_555
H11 C17 1_555 1_555
N3 C14 1_555 1_555
C18 C16 1_555 1_555
O7 N6 1_555 1_555
O8 N6 1_555 1_555
O9 C35 1_555 1_555
O10 C35 1_555 1_555
O11 Cd1 1_555 1_555
O12 Cd2 1_555 1_555
N4 Cd2 1_555 1_555
N5 Cd2 1_555 1_555
C19 N4 1_555 1_555
H12 C19 1_555 1_555
C20 C19 1_555 1_555
H13 C20 1_555 1_555
C21 C20 1_555 1_555
H14 C21 1_555 1_555
C22 C21 1_555 1_555
H15 C22 1_555 1_555
C23 N4 1_555 1_555
C24 N5 1_555 1_555
C25 C24 1_555 1_555
H16 C25 1_555 1_555
C26 C25 1_555 1_555
H17 C26 1_555 1_555
C27 C26 1_555 1_555
H18 C27 1_555 1_555
C28 N5 1_555 1_555
H19 C28 1_555 1_555
N6 C29 1_555 1_555
C29 C30 1_555 1_555
C30 H20 1_555 1_555
C31 C30 1_555 1_555
C32 C31 1_555 1_555
H21 C32 1_555 1_555
C33 C32 1_555 1_555
C34 C29 1_555 1_555
H22 C34 1_555 1_555
C35 C31 1_555 1_555
C36 O11 1_555 1_555
O13 H23 1_555 1_555
H24 O13 1_555 1_555
O14 H25 1_555 1_555
H26 O14 1_555 1_555
Cd1_2 O5 1_555 1_555
Cd2_2 O6 1_555 1_555
O5_2 Cd1 1_555 1_555
O6_2 Cd1 1_555 1_555
O9_2 Cd2 1_555 1_555
O10_2 Cd2 1_555 1_555
Cd2 O6_2 1_555 1_555
O6 Cd1_2 1_555 1_555
C4 C5 1_555 1_555
C5 C6 1_555 1_555
C9 C10 1_555 1_555
C16 C17 1_555 1_555
O9 Cd2_2 1_555 1_555
O10 Cd2_2 1_555 1_555
O12 C36 1_555 1_555
C22 C23 1_555 1_555
C23 C24 1_555 1_555
C27 C28 1_555 1_555
C33 C34 1_555 1_555
C33 C36 1_555 1_555

#END
