
#######################################################################
#
#                 Cambridge Crystallographic Data Centre
#                                CCDC 
#
#######################################################################
#
# If this CIF has been generated from an entry in the Cambridge 
# Structural Database, then it will include bibliographic, chemical, 
# crystal, experimental, refinement or atomic coordinate data resulting 
# from the CCDC's data processing and validation procedures.
#
#######################################################################

data_ZUSJII
_symmetry_cell_setting           monoclinic
_symmetry_space_group_name_H-M   'C 2/c'
_symmetry_Int_Tables_number      15
_space_group_name_Hall           '-C 2yn'
loop_
_symmetry_equiv_pos_site_id
_symmetry_equiv_pos_as_xyz
1 x,y,z
2 -x,y,1/2-z
3 1/2+x,1/2+y,z
4 1/2-x,1/2+y,1/2-z
5 -x,-y,-z
6 x,-y,1/2+z
7 1/2-x,1/2-y,-z
8 1/2+x,1/2-y,1/2+z
_cell_length_a                   31.118(3)
_cell_length_b                   9.2715(4)
_cell_length_c                   15.0086(13)
_cell_angle_alpha                90
_cell_angle_beta                 123.828(12)
_cell_angle_gamma                90
_cell_volume                     3597.1
loop_
_atom_site_label
_atom_site_type_symbol
_atom_site_fract_x
_atom_site_fract_y
_atom_site_fract_z
Zn1 Zn 0.62476(2) 0.85064(3) 0.58502(2)
O1 O 0.66827(7) 0.76041(18) 0.54543(15)
O2 O 0.83704(7) 0.60191(19) 0.64638(15)
O3 O 0.59795(8) 0.6361(2) 0.42509(18)
O4 O 0.84553(7) 0.4126(2) 0.57153(15)
O5 O 0.62065(7) 0.29184(18) 0.18265(14)
O6 O 0.69591(7) 0.17791(17) 0.26930(15)
C1 C 0.74193(10) 0.3916(3) 0.4248(2)
H1 H 0.7634 0.3296 0.4178
N1 N 0.81915(9) 0.5037(2) 0.57962(18)
N2 N 0.63571(8) 1.0684(2) 0.60619(17)
N3 N 0.55226(8) 0.9186(2) 0.46548(18)
C2 C 0.64455(11) 0.6619(3) 0.4726(2)
C3 C 0.66729(10) 0.2758(3) 0.2641(2)
C4 C 0.67854(10) 0.5726(3) 0.4522(2)
C5 C 0.73189(10) 0.5850(3) 0.5200(2)
H2 H 0.7467 0.6535 0.5744
C6 C 0.68870(10) 0.3834(2) 0.3547(2)
C7 C 0.76254(10) 0.4942(3) 0.5055(2)
C8 C 0.65685(11) 0.4726(3) 0.3685(2)
H3 H 0.6211 0.4655 0.3220
C9 C 0.59401(10) 1.1479(3) 0.5344(2)
C10 C 0.68439(12) 1.2835(3) 0.6855(2)
H4 H 0.7154 1.3273 0.7371
C11 C 0.51168(11) 0.8350(3) 0.3969(2)
H5 H 0.5153 0.7353 0.4043
C12 C 0.59625(12) 1.2969(3) 0.5368(2)
H6 H 0.5674 1.3509 0.4874
C13 C 0.50132(12) 1.1257(3) 0.3751(3)
H7 H 0.4983 1.2255 0.3681
C14 C 0.67951(11) 1.1350(3) 0.6790(2)
H8 H 0.7080 1.0792 0.7274
C15 C 0.54732(11) 1.0638(3) 0.4552(2)
C16 C 0.64179(13) 1.3647(3) 0.6132(3)
H9 H 0.6437 1.4649 0.6159
C17 C 0.46495(11) 0.8913(3) 0.3160(2)
H10 H 0.4375 0.8311 0.2697
C18 C 0.45987(11) 1.0386(3) 0.3054(2)
H11 H 0.4287 1.0794 0.2515
Zn1E Zn 0.62476(2) 0.14936(3) 0.08502(2)
O5E O 0.62065(7) 0.70816(18) 0.68265(14)
O6E O 0.69591(7) 0.82209(17) 0.76930(15)
O7 O 0.53249(10) 0.5235(3) 0.6085(3)
H12 H 0.5189 0.5420 0.6431
H13 H 0.5588 0.5769 0.6313
O8 O 0.4846(2) 0.4834(5) 0.2426(7)
H14 H 0.4678 0.5413 0.1902
H15 H 0.5163 0.5077 0.2801
O8A O 0.5154(2) 0.4834(5) 0.2574(7)
H14A H 0.5322 0.5413 0.3098
H15A H 0.4837 0.5077 0.2199
loop_
_geom_bond_atom_site_label_1
_geom_bond_atom_site_label_2
_geom_bond_site_symmetry_1
_geom_bond_site_symmetry_2
Zn1 O1 1_555 1_555
O1 C2 1_555 1_555
O2 N1 1_555 1_555
O3 C2 1_555 1_555
O4 N1 1_555 1_555
O5 C3 1_555 1_555
O6 C3 1_555 1_555
C1 H1 1_555 1_555
N1 C7 1_555 1_555
N2 Zn1 1_555 1_555
N3 Zn1 1_555 1_555
C2 C4 1_555 1_555
C3 C6 1_555 1_555
C4 C5 1_555 1_555
C5 H2 1_555 1_555
C6 C1 1_555 1_555
C7 C1 1_555 1_555
C8 C4 1_555 1_555
H3 C8 1_555 1_555
C9 N2 1_555 1_555
C10 H4 1_555 1_555
C11 N3 1_555 1_555
H5 C11 1_555 1_555
C12 C9 1_555 1_555
H6 C12 1_555 1_555
C13 H7 1_555 1_555
C14 N2 1_555 1_555
H8 C14 1_555 1_555
C15 N3 1_555 1_555
C16 C10 1_555 1_555
H9 C16 1_555 1_555
C17 C11 1_555 1_555
H10 C17 1_555 1_555
C18 C13 1_555 1_555
H11 C18 1_555 1_555
O7 H12 1_555 1_555
H13 O7 1_555 1_555
O8 H14 1_555 1_555
H15 O8 1_555 1_555
Zn1E O5 1_555 1_555
O5E Zn1 1_555 1_555
O6E Zn1 1_555 1_555
O8A H14A 1_555 1_555
H15A O8A 1_555 1_555
O6 Zn1E 1_555 1_555
C5 C7 1_555 1_555
C6 C8 1_555 1_555
C9 C15 1_555 1_555
C10 C14 1_555 1_555
C12 C16 1_555 1_555
C13 C15 1_555 1_555
C17 C18 1_555 1_555

#END
