
#######################################################################
#
#                 Cambridge Crystallographic Data Centre
#                                CCDC 
#
#######################################################################
#
# If this CIF has been generated from an entry in the Cambridge 
# Structural Database, then it will include bibliographic, chemical, 
# crystal, experimental, refinement or atomic coordinate data resulting 
# from the CCDC's data processing and validation procedures.
#
#######################################################################

data_ZUSRIQ01
_symmetry_cell_setting           triclinic
_symmetry_space_group_name_H-M   'P -1'
_symmetry_Int_Tables_number      2
_space_group_name_Hall           '-P 1'
loop_
_symmetry_equiv_pos_site_id
_symmetry_equiv_pos_as_xyz
1 x,y,z
2 -x,-y,-z
_cell_length_a                   8.6185(17)
_cell_length_b                   10.683(2)
_cell_length_c                   11.709(2)
_cell_angle_alpha                73.176(3)
_cell_angle_beta                 81.737(3)
_cell_angle_gamma                86.247(3)
_cell_volume                     1020.88
loop_
_atom_site_label
_atom_site_type_symbol
_atom_site_fract_x
_atom_site_fract_y
_atom_site_fract_z
Mn1 Mn 0.62087(10) 0.56930(8) 0.53804(8)
Si1 Si -0.2465(2) 0.75336(16) 0.99944(16)
O1 O 0.4229(5) 0.6124(4) 0.6518(4)
O2 O -0.5014(6) 1.3178(5) 0.6083(4)
O3 O 0.2458(5) 0.5114(4) 0.5906(4)
O4 O -0.3158(6) 1.4003(5) 0.6741(4)
N1 N 0.7711(6) 0.7271(5) 0.5269(5)
C1 C -0.0840(7) 0.6953(6) 0.9006(6)
C2 C 0.2850(8) 0.5787(6) 0.6551(6)
C3 C 0.1579(7) 0.6168(6) 0.7416(6)
C4 C 0.0094(8) 0.5718(6) 0.7576(6)
H1 H -0.0135 0.5159 0.7147
C5 C -0.1080(7) 0.6083(6) 0.8372(6)
H2 H -0.2067 0.573 0.8484
C6 C 0.0678(8) 0.7410(7) 0.8820(7)
H3 H 0.0905 0.7994 0.9224
C7 C 0.1864(8) 0.7019(7) 0.8052(7)
H4 H 0.2868 0.7334 0.7963
C8 C -0.1747(8) 0.7661(6) 1.1373(6)
H5 H -0.1174 0.6874 1.172
H6 H -0.2622 0.7781 1.1941
H7 H -0.1071 0.8394 1.117
C9 C -0.4144(8) 0.6415(7) 1.0342(6)
H8 H -0.446 0.636 0.9605
H9 H -0.5006 0.6748 1.0796
H10 H -0.3833 0.5561 1.0805
C10 C -0.3047(7) 0.9233(6) 0.9093(6)
C11 C -0.4272(8) 0.9463(7) 0.8393(6)
H11 H -0.4894 0.8773 0.842
C12 C -0.2187(8) 1.0307(6) 0.9032(6)
H12 H -0.1372 1.0193 0.9497
C13 C -0.3972(8) 1.3084(7) 0.6743(6)
C14 C -0.3684(7) 1.1746(6) 0.7576(5)
C15 C -0.4579(8) 1.0702(7) 0.7657(6)
H13 H -0.5412 1.0828 0.7208
C16 C -0.2503(8) 1.1549(6) 0.8301(7)
H14 H -0.1918 1.2251 0.8298
C17 C 0.9174(8) 0.7358(7) 0.4754(8)
H15 H 0.9612 0.6679 0.4455
C18 C 1.0088(8) 0.8409(8) 0.4638(8)
H16 H 1.1119 0.842 0.4268
C19 C 0.9511(8) 0.9425(7) 0.5052(7)
C20 C 0.8019(11) 0.9323(10) 0.5610(12)
H17 H 0.7552 0.9988 0.5917
C21 C 0.7193(10) 0.8209(9) 0.5718(11)
H18 H 0.6191 0.8137 0.6146
N1A N 1.2289(6) 1.2729(5) 0.4731(5)
C17A C 1.0826(8) 1.2642(7) 0.5246(8)
H15A H 1.0388 1.3321 0.5545
C18A C 0.9912(8) 1.1591(8) 0.5362(8)
H16A H 0.8881 1.158 0.5732
C19A C 1.0489(8) 1.0575(7) 0.4948(7)
C20A C 1.1981(11) 1.0677(10) 0.4390(12)
H17A H 1.2448 1.0012 0.4083
C21A C 1.2807(10) 1.1791(9) 0.4282(11)
H18A H 1.3809 1.1863 0.3854
Mn1A Mn -0.62087(10) 1.43070(8) 0.46196(8)
Si1A Si 0.2465(2) 1.24664(16) 0.00056(16)
O1A O -0.4229(5) 1.3876(4) 0.3482(4)
O2A O 0.5014(6) 0.6822(5) 0.3917(4)
O3A O -0.2458(5) 1.4886(4) 0.4094(4)
O4A O 0.3158(6) 0.5997(5) 0.3259(4)
C1A C 0.0840(7) 1.3047(6) 0.0994(6)
C2A C -0.2850(8) 1.4213(6) 0.3449(6)
C3A C -0.1579(7) 1.3832(6) 0.2584(6)
C4A C -0.0094(8) 1.4282(6) 0.2424(6)
H1A H 0.0135 1.4841 0.2853
C5A C 0.1080(7) 1.3917(6) 0.1628(6)
H2A H 0.2067 1.427 0.1516
C6A C -0.0678(8) 1.2590(7) 0.1180(7)
H3A H -0.0905 1.2006 0.0776
C7A C -0.1864(8) 1.2981(7) 0.1948(7)
H4A H -0.2868 1.2666 0.2037
C8A C 0.1747(8) 1.2339(6) -0.1373(6)
H5A H 0.1174 1.3126 -0.172
H6A H 0.2622 1.2219 -0.1941
H7A H 0.1071 1.1606 -0.117
C9A C 0.4144(8) 1.3585(7) -0.0342(6)
H8A H 0.446 1.364 0.0395
H9A H 0.5006 1.3252 -0.0796
H10A H 0.3833 1.4439 -0.0805
C10A C 0.3047(7) 1.0767(6) 0.0907(6)
C11A C 0.4272(8) 1.0537(7) 0.1607(6)
H11A H 0.4894 1.1227 0.158
C12A C 0.2187(8) 0.9693(6) 0.0968(6)
H12A H 0.1372 0.9807 0.0503
C13A C 0.3972(8) 0.6916(7) 0.3257(6)
C14A C 0.3684(7) 0.8254(6) 0.2424(5)
C15A C 0.4579(8) 0.9298(7) 0.2343(6)
H13A H 0.5412 0.9172 0.2792
C16A C 0.2503(8) 0.8451(6) 0.1699(7)
H14A H 0.1918 0.7749 0.1702
Mn1_2 Mn -0.37913(10) 1.56930(8) 0.53804(8)
Mn1A_2 Mn 0.37913(10) 0.43070(8) 0.46196(8)
Mn1A_3 Mn 1.37913(10) 1.43070(8) 0.46196(8)
O3_2 O -0.7542(5) 1.5114(4) 0.5906(4)
O3A_2 O 0.7542(5) 0.4886(4) 0.4094(4)
O4_2 O 0.6842(6) 0.4003(5) 0.6741(4)
O4A_2 O -0.6842(6) 1.5997(5) 0.3259(4)
N1A_2 N -0.7711(6) 1.2729(5) 0.4731(5)
loop_
_geom_bond_atom_site_label_1
_geom_bond_atom_site_label_2
_geom_bond_site_symmetry_1
_geom_bond_site_symmetry_2
Mn1 O1 1_555 1_555
Si1 C1 1_555 1_555
O1 C2 1_555 1_555
O2 C13 1_555 1_555
O3 C2 1_555 1_555
O4 C13 1_555 1_555
N1 Mn1 1_555 1_555
C1 C5 1_555 1_555
C2 C3 1_555 1_555
C3 C4 1_555 1_555
C4 H1 1_555 1_555
C5 C4 1_555 1_555
H2 C5 1_555 1_555
C6 C1 1_555 1_555
H3 C6 1_555 1_555
C7 C3 1_555 1_555
H4 C7 1_555 1_555
C8 Si1 1_555 1_555
H5 C8 1_555 1_555
H6 C8 1_555 1_555
H7 C8 1_555 1_555
C9 Si1 1_555 1_555
H8 C9 1_555 1_555
H9 C9 1_555 1_555
H10 C9 1_555 1_555
C10 Si1 1_555 1_555
C11 C10 1_555 1_555
H11 C11 1_555 1_555
C12 C10 1_555 1_555
H12 C12 1_555 1_555
C13 C14 1_555 1_555
C14 C15 1_555 1_555
C15 C11 1_555 1_555
H13 C15 1_555 1_555
C16 C12 1_555 1_555
H14 C16 1_555 1_555
C17 N1 1_555 1_555
H15 C17 1_555 1_555
C18 C17 1_555 1_555
H16 C18 1_555 1_555
C19 C18 1_555 1_555
C20 C19 1_555 1_555
H17 C20 1_555 1_555
C21 N1 1_555 1_555
H18 C21 1_555 1_555
N1A C17A 1_555 1_555
C17A H15A 1_555 1_555
C18A C17A 1_555 1_555
H16A C18A 1_555 1_555
C19A C19 1_555 1_555
C20A C19A 1_555 1_555
H17A C20A 1_555 1_555
C21A N1A 1_555 1_555
H18A C21A 1_555 1_555
Mn1A O2 1_555 1_555
Si1A C1A 1_555 1_555
O1A Mn1A 1_555 1_555
O2A Mn1 1_555 1_555
O3A C2A 1_555 1_555
O4A C13A 1_555 1_555
C1A C5A 1_555 1_555
C2A O1A 1_555 1_555
C3A C2A 1_555 1_555
C4A C3A 1_555 1_555
H1A C4A 1_555 1_555
C5A C4A 1_555 1_555
H2A C5A 1_555 1_555
C6A C1A 1_555 1_555
H3A C6A 1_555 1_555
C7A C3A 1_555 1_555
H4A C7A 1_555 1_555
C8A Si1A 1_555 1_555
H5A C8A 1_555 1_555
H6A C8A 1_555 1_555
H7A C8A 1_555 1_555
C9A Si1A 1_555 1_555
H8A C9A 1_555 1_555
H9A C9A 1_555 1_555
H10A C9A 1_555 1_555
C10A Si1A 1_555 1_555
C11A C10A 1_555 1_555
H11A C11A 1_555 1_555
C12A C10A 1_555 1_555
H12A C12A 1_555 1_555
C13A O2A 1_555 1_555
C14A C13A 1_555 1_555
C15A C11A 1_555 1_555
H13A C15A 1_555 1_555
C16A C12A 1_555 1_555
H14A C16A 1_555 1_555
Mn1_2 O4 1_555 1_555
Mn1A_2 O3 1_555 1_555
Mn1A_3 N1A 1_555 1_555
O3_2 Mn1A 1_555 1_555
O3A_2 Mn1 1_555 1_555
O4_2 Mn1 1_555 1_555
O4A_2 Mn1A 1_555 1_555
N1A_2 Mn1A 1_555 1_555
C6 C7 1_555 1_555
C14 C16 1_555 1_555
C20 C21 1_555 1_555
C18A C19A 1_555 1_555
C20A C21A 1_555 1_555
O3A Mn1_2 1_555 1_555
O4A Mn1A_2 1_555 1_555
C6A C7A 1_555 1_555
C14A C15A 1_555 1_555
C14A C16A 1_555 1_555

#END
