
#######################################################################
#
#                 Cambridge Crystallographic Data Centre
#                                CCDC 
#
#######################################################################
#
# If this CIF has been generated from an entry in the Cambridge 
# Structural Database, then it will include bibliographic, chemical, 
# crystal, experimental, refinement or atomic coordinate data resulting 
# from the CCDC's data processing and validation procedures.
#
#######################################################################

data_ZUSRIQ
_symmetry_cell_setting           triclinic
_symmetry_space_group_name_H-M   'P -1'
_symmetry_Int_Tables_number      2
_space_group_name_Hall           '-P 1'
loop_
_symmetry_equiv_pos_site_id
_symmetry_equiv_pos_as_xyz
1 x,y,z
2 -x,-y,-z
_cell_length_a                   8.532(12)
_cell_length_b                   10.794(15)
_cell_length_c                   11.375(16)
_cell_angle_alpha                73.267(16)
_cell_angle_beta                 82.708(16)
_cell_angle_gamma                87.105(18)
_cell_volume                     994.995
loop_
_atom_site_label
_atom_site_type_symbol
_atom_site_fract_x
_atom_site_fract_y
_atom_site_fract_z
Mn1 Mn 0.62245(17) 0.56601(14) 0.54244(13)
Si1 Si 0.7486(3) -0.2477(3) 1.0017(3)
O1 O 0.5027(8) 0.3221(7) 0.6065(6)
O2 O 1.2433(8) -0.4892(6) 0.5902(6)
O3 O 1.4269(8) -0.3948(6) 0.6604(6)
O4 O 0.6932(8) 0.3988(7) 0.6812(6)
N1 N 0.7721(10) 0.7267(7) 0.5286(7)
C1 C 1.2867(12) -0.4252(9) 0.6593(8)
C2 C 1.1614(12) -0.3871(9) 0.7481(9)
C3 C 1.1872(12) -0.3032(10) 0.8126(9)
H1 H 1.2883 -0.2709 0.8042
C4 C 1.0684(12) -0.2636(10) 0.8909(9)
H2 H 1.0916 -0.2069 0.934
C5 C 0.9122(12) -0.3099(9) 0.9047(9)
C6 C 0.8860(12) -0.3954(9) 0.8413(9)
H3 H 0.7853 -0.4284 0.8499
C7 C 1.0070(14) -0.4347(10) 0.7634(10)
H4 H 0.985 -0.4928 0.7214
C8 C 0.6106(12) 0.3073(10) 0.6747(9)
C9 C 0.6369(11) 0.1743(9) 0.7584(9)
C10 C 0.7600(12) 0.1490(10) 0.8324(10)
H5 H 0.8248 0.216 0.8319
C11 C 0.7866(12) 0.0265(10) 0.9060(10)
H6 H 0.8678 0.0139 0.9557
C12 C 0.6989(11) -0.0795(9) 0.9100(9)
C13 C 0.8181(12) -0.2347(10) 1.1481(9)
H7 H 0.7319 -0.2065 1.1975
H8 H 0.9019 -0.1733 1.1279
H9 H 0.8561 -0.3177 1.1935
C14 C 0.5763(12) -0.3572(9) 1.0303(9)
H10 H 0.4857 -0.32 1.0676
H11 H 0.6011 -0.4399 1.0848
H12 H 0.5536 -0.3678 0.9533
C15 C 0.5733(13) -0.0520(10) 0.8371(11)
H13 H 0.5074 -0.1183 0.838
C16 C 0.5460(14) 0.0726(10) 0.7638(10)
H14 H 0.462 0.0869 0.7166
C17 C 0.7159(16) 0.8237(14) 0.5676(19)
H15 H 0.6132 0.819 0.6071
C18 C 0.8006(17) 0.9326(15) 0.5532(19)
H16 H 0.7508 1.0019 0.5766
C19 C 0.9512(13) 0.9420(11) 0.5071(10)
C20 C 1.0135(14) 0.8401(11) 0.4693(12)
H17 H 1.119 0.8406 0.4363
C21 C 0.9204(16) 0.7352(10) 0.4796(11)
H18 H 0.9649 0.6676 0.4505
N1A N 1.2279(10) 1.2733(7) 0.4714(7)
C17A C 1.2841(16) 1.1763(14) 0.4324(19)
H15A H 1.3868 1.181 0.3929
C18A C 1.1994(17) 1.0674(15) 0.4468(19)
H16A H 1.2492 0.9981 0.4234
C19A C 1.0488(13) 1.0580(11) 0.4929(10)
C20A C 0.9865(14) 1.1599(11) 0.5307(12)
H17A H 0.881 1.1594 0.5637
C21A C 1.0796(16) 1.2648(10) 0.5204(11)
H18A H 1.0351 1.3324 0.5495
Mn1A Mn 0.37755(17) 0.43399(14) 0.45756(13)
Si1A Si 0.2514(3) 1.2477(3) -0.0017(3)
O1A O 0.4973(8) 0.6779(7) 0.3935(6)
O2A O -0.2433(8) 1.4892(6) 0.4098(6)
O3A O -0.4269(8) 1.3948(6) 0.3396(6)
O4A O 0.3068(8) 0.6012(7) 0.3188(6)
C1A C -0.2867(12) 1.4252(9) 0.3407(8)
C2A C -0.1614(12) 1.3871(9) 0.2519(9)
C3A C -0.1872(12) 1.3032(10) 0.1874(9)
H1A H -0.2883 1.2709 0.1958
C4A C -0.0684(12) 1.2636(10) 0.1091(9)
H2A H -0.0916 1.2069 0.066
C5A C 0.0878(12) 1.3099(9) 0.0953(9)
C6A C 0.1140(12) 1.3954(9) 0.1587(9)
H3A H 0.2147 1.4284 0.1501
C7A C -0.0070(14) 1.4347(10) 0.2366(10)
H4A H 0.015 1.4928 0.2786
C8A C 0.3894(12) 0.6927(10) 0.3253(9)
C9A C 0.3631(11) 0.8257(9) 0.2416(9)
C10A C 0.2400(12) 0.8510(10) 0.1676(10)
H5A H 0.1752 0.784 0.1681
C11A C 0.2134(12) 0.9735(10) 0.0940(10)
H6A H 0.1322 0.9861 0.0443
C12A C 0.3011(11) 1.0795(9) 0.0900(9)
C13A C 0.1819(12) 1.2347(10) -0.1481(9)
H7A H 0.2681 1.2065 -0.1975
H8A H 0.0981 1.1733 -0.1279
H9A H 0.1439 1.3177 -0.1935
C14A C 0.4237(12) 1.3572(9) -0.0303(9)
H10A H 0.5143 1.32 -0.0676
H11A H 0.3989 1.4399 -0.0848
H12A H 0.4464 1.3678 0.0467
C15A C 0.4267(13) 1.0520(10) 0.1629(11)
H13A H 0.4926 1.1183 0.162
C16A C 0.4540(14) 0.9274(10) 0.2362(10)
H14A H 0.538 0.9131 0.2834
Mn1_2 Mn -0.37755(17) 1.56601(14) 0.54244(13)
Mn1_3 Mn 1.62245(17) -0.43399(14) 0.54244(13)
Mn1A_2 Mn -0.62245(17) 1.43399(14) 0.45756(13)
Mn1A_3 Mn 1.37755(17) -0.56601(14) 0.45756(13)
Mn1A_4 Mn 1.37755(17) 1.43399(14) 0.45756(13)
O2_2 O 0.2433(8) 0.5108(6) 0.5902(6)
O2A_2 O 0.7567(8) 0.4892(6) 0.4098(6)
O3_2 O 0.4269(8) 0.6052(6) 0.6604(6)
O3A_2 O 0.5731(8) 0.3948(6) 0.3396(6)
N1A_2 N 0.2279(10) 0.2733(7) 0.4714(7)
loop_
_geom_bond_atom_site_label_1
_geom_bond_atom_site_label_2
_geom_bond_site_symmetry_1
_geom_bond_site_symmetry_2
Mn1 O4 1_555 1_555
Si1 C5 1_555 1_555
O1 C8 1_555 1_555
O2 C1 1_555 1_555
O3 C1 1_555 1_555
O4 C8 1_555 1_555
N1 Mn1 1_555 1_555
C1 C2 1_555 1_555
C2 C3 1_555 1_555
C3 H1 1_555 1_555
C4 C3 1_555 1_555
H2 C4 1_555 1_555
C5 C4 1_555 1_555
C6 C5 1_555 1_555
H3 C6 1_555 1_555
C7 C2 1_555 1_555
H4 C7 1_555 1_555
C8 C9 1_555 1_555
C9 C10 1_555 1_555
C10 H5 1_555 1_555
C11 C10 1_555 1_555
H6 C11 1_555 1_555
C12 Si1 1_555 1_555
C13 Si1 1_555 1_555
H7 C13 1_555 1_555
H8 C13 1_555 1_555
H9 C13 1_555 1_555
C14 Si1 1_555 1_555
H10 C14 1_555 1_555
H11 C14 1_555 1_555
H12 C14 1_555 1_555
C15 C12 1_555 1_555
H13 C15 1_555 1_555
C16 C9 1_555 1_555
H14 C16 1_555 1_555
C17 N1 1_555 1_555
H15 C17 1_555 1_555
C18 C17 1_555 1_555
H16 C18 1_555 1_555
C19 C18 1_555 1_555
C20 C19 1_555 1_555
H17 C20 1_555 1_555
C21 N1 1_555 1_555
H18 C21 1_555 1_555
N1A C17A 1_555 1_555
C17A H15A 1_555 1_555
C18A C17A 1_555 1_555
H16A C18A 1_555 1_555
C19A C19 1_555 1_555
C20A C19A 1_555 1_555
H17A C20A 1_555 1_555
C21A N1A 1_555 1_555
H18A C21A 1_555 1_555
Mn1A O1 1_555 1_555
Si1A C5A 1_555 1_555
O1A Mn1 1_555 1_555
O2A C1A 1_555 1_555
O3A C1A 1_555 1_555
O4A Mn1A 1_555 1_555
C1A C2A 1_555 1_555
C2A C3A 1_555 1_555
C3A H1A 1_555 1_555
C4A C3A 1_555 1_555
H2A C4A 1_555 1_555
C5A C4A 1_555 1_555
C6A C5A 1_555 1_555
H3A C6A 1_555 1_555
C7A C2A 1_555 1_555
H4A C7A 1_555 1_555
C8A O1A 1_555 1_555
C9A C8A 1_555 1_555
C10A C9A 1_555 1_555
H5A C10A 1_555 1_555
C11A C10A 1_555 1_555
H6A C11A 1_555 1_555
C12A Si1A 1_555 1_555
C13A Si1A 1_555 1_555
H7A C13A 1_555 1_555
H8A C13A 1_555 1_555
H9A C13A 1_555 1_555
C14A Si1A 1_555 1_555
H10A C14A 1_555 1_555
H11A C14A 1_555 1_555
H12A C14A 1_555 1_555
C15A C12A 1_555 1_555
H13A C15A 1_555 1_555
C16A C9A 1_555 1_555
H14A C16A 1_555 1_555
Mn1_2 O2A 1_555 1_555
Mn1_3 O3 1_555 1_555
Mn1A_2 O3A 1_555 1_555
Mn1A_3 O2 1_555 1_555
Mn1A_4 N1A 1_555 1_555
O2_2 Mn1A 1_555 1_555
O2A_2 Mn1 1_555 1_555
O3_2 Mn1 1_555 1_555
O3A_2 Mn1A 1_555 1_555
N1A_2 Mn1A 1_555 1_555
C6 C7 1_555 1_555
C11 C12 1_555 1_555
C15 C16 1_555 1_555
C20 C21 1_555 1_555
C18A C19A 1_555 1_555
C20A C21A 1_555 1_555
O4A C8A 1_555 1_555
C6A C7A 1_555 1_555
C11A C12A 1_555 1_555
C15A C16A 1_555 1_555

#END
