
#######################################################################
#
#                 Cambridge Crystallographic Data Centre
#                                CCDC 
#
#######################################################################
#
# If this CIF has been generated from an entry in the Cambridge 
# Structural Database, then it will include bibliographic, chemical, 
# crystal, experimental, refinement or atomic coordinate data resulting 
# from the CCDC's data processing and validation procedures.
#
#######################################################################

data_ZUSZOE
_symmetry_cell_setting           hexagonal
_symmetry_space_group_name_H-M   'P 65'
_symmetry_Int_Tables_number      170
_space_group_name_Hall           'P 65'
loop_
_symmetry_equiv_pos_site_id
_symmetry_equiv_pos_as_xyz
1 x,y,z
2 -y,x-y,2/3+z
3 -x+y,-x,1/3+z
4 -x,-y,1/2+z
5 y,-x+y,1/6+z
6 x-y,x,5/6+z
_cell_length_a                   10.3083(7)
_cell_length_b                   10.3083(7)
_cell_length_c                   20.375(3)
_cell_angle_alpha                90
_cell_angle_beta                 90
_cell_angle_gamma                120
_cell_volume                     1875
loop_
_atom_site_label
_atom_site_type_symbol
_atom_site_fract_x
_atom_site_fract_y
_atom_site_fract_z
Fe1 Fe -0.23980(5) 0.20870(5) 1.06470(2)
O1 O -0.1344(3) 0.0779(3) 1.03342(17)
O2 O 0.0093(3) 0.3204(3) 1.04387(15)
O3 O -0.1866(3) 0.1899(3) 1.16272(16)
H1 H -0.1055 0.1909 1.1714
H2 H -0.1958 0.2479 1.1896
O4 O -0.2735(4) 0.2409(4) 0.96293(16)
H3 H -0.3072 0.2945 0.9471
H4 H -0.2878 0.1736 0.9351
O5 O 0.4872(3) 0.5452(3) 0.91246(17)
O6 O 0.6213(3) 0.4314(3) 0.91935(15)
N1 N 0.3399(4) -0.2526(4) 0.91978(17)
C1 C 0.5038(4) 0.4366(4) 0.92698(19)
C2 C -0.0082(4) 0.1936(4) 1.0280(2)
C3 C 0.1199(4) 0.1820(4) 0.9998(2)
C4 C 0.2503(4) 0.3110(4) 0.9821(2)
H5 H 0.2604 0.4045 0.9898
C5 C 0.3662(4) 0.3000(4) 0.95259(19)
C6 C 0.3517(4) 0.1605(4) 0.9425(2)
H6 H 0.4304 0.1543 0.9234
C7 C 0.1053(4) 0.0411(4) 0.9887(2)
H7 H 0.0171 -0.0451 1.0004
C8 C 0.2218(4) 0.0291(4) 0.96021(19)
C9 C 0.2098(4) -0.1185(4) 0.9461(2)
C10 C 0.3388(4) -0.1268(4) 0.9359(2)
H8 H 0.4306 -0.0393 0.9406
C11 C 0.0739(5) -0.2522(5) 0.9425(2)
H9 H -0.0157 -0.2532 0.9497
C12 C 0.0732(5) -0.3840(5) 0.9281(3)
H10 H -0.0166 -0.4745 0.9264
C13 C 0.2070(5) -0.3797(5) 0.9162(2)
H11 H 0.2051 -0.4682 0.9052
Fe1E Fe 0.55150(7) -0.23980(5) 0.89803(2)
Fe1E_2 Fe 0.55150(7) 0.76020(5) 0.89803(2)
O5D O -0.4548(3) 0.0580(4) 1.07913(17)
N1D N -0.2526(4) 0.4075(6) 1.08645(17)
loop_
_geom_bond_atom_site_label_1
_geom_bond_atom_site_label_2
_geom_bond_site_symmetry_1
_geom_bond_site_symmetry_2
Fe1 O1 1_555 1_555
O1 C2 1_555 1_555
O2 Fe1 1_555 1_555
O3 Fe1 1_555 1_555
H1 O3 1_555 1_555
H2 O3 1_555 1_555
O4 Fe1 1_555 1_555
H3 O4 1_555 1_555
H4 O4 1_555 1_555
O5 C1 1_555 1_555
O6 C1 1_555 1_555
N1 C10 1_555 1_555
C1 C5 1_555 1_555
C2 O2 1_555 1_555
C3 C2 1_555 1_555
C4 C3 1_555 1_555
H5 C4 1_555 1_555
C5 C4 1_555 1_555
C6 C5 1_555 1_555
H6 C6 1_555 1_555
C7 C3 1_555 1_555
H7 C7 1_555 1_555
C8 C6 1_555 1_555
C9 C8 1_555 1_555
C10 C9 1_555 1_555
H8 C10 1_555 1_555
C11 C9 1_555 1_555
H9 C11 1_555 1_555
C12 C11 1_555 1_555
H10 C12 1_555 1_555
C13 N1 1_555 1_555
H11 C13 1_555 1_555
Fe1E N1 1_555 1_555
Fe1E_2 O5 1_555 1_555
O5D Fe1 1_555 1_555
N1D Fe1 1_555 1_555
C7 C8 1_555 1_555
C12 C13 1_555 1_555

#END
