
#######################################################################
#
#                 Cambridge Crystallographic Data Centre
#                                CCDC 
#
#######################################################################
#
# If this CIF has been generated from an entry in the Cambridge 
# Structural Database, then it will include bibliographic, chemical, 
# crystal, experimental, refinement or atomic coordinate data resulting 
# from the CCDC's data processing and validation procedures.
#
#######################################################################

data_ZUTWOC
_symmetry_cell_setting           rhombohedral
_symmetry_space_group_name_H-M   'R -3'
_symmetry_Int_Tables_number      148
_space_group_name_Hall           '-R 3'
loop_
_symmetry_equiv_pos_site_id
_symmetry_equiv_pos_as_xyz
1 x,y,z
2 -y,x-y,z
3 -x+y,-x,z
4 2/3+x,1/3+y,1/3+z
5 2/3-y,1/3+x-y,1/3+z
6 2/3-x+y,1/3-x,1/3+z
7 1/3+x,2/3+y,2/3+z
8 1/3-y,2/3+x-y,2/3+z
9 1/3-x+y,2/3-x,2/3+z
10 -x,-y,-z
11 y,-x+y,-z
12 x-y,x,-z
13 1/3-x,2/3-y,2/3-z
14 1/3+y,2/3-x+y,2/3-z
15 1/3+x-y,2/3+x,2/3-z
16 2/3-x,1/3-y,1/3-z
17 2/3+y,1/3-x+y,1/3-z
18 2/3+x-y,1/3+x,1/3-z
_cell_length_a                   27.6094(19)
_cell_length_b                   27.6094(19)
_cell_length_c                   35.171(3)
_cell_angle_alpha                90
_cell_angle_beta                 90
_cell_angle_gamma                120
_cell_volume                     23218.2
loop_
_atom_site_label
_atom_site_type_symbol
_atom_site_fract_x
_atom_site_fract_y
_atom_site_fract_z
Pb1 Pb 0.22730(2) 0.59963(2) -0.28007(2)
Pb2 Pb 0.09208(2) 0.54880(2) -0.22154(2)
Pb3 Pb -0.03923(2) 0.52368(2) -0.15825(2)
Pb4 Pb -0.04265(2) 0.38720(2) -0.20394(2)
O1 O 0.1374(3) 0.5971(3) -0.2919(2)
O2 O 0.2106(3) 0.6711(3) -0.3152(2)
C1 C 0.1586(4) 0.6450(5) -0.3069(3)
C2 C 0.1230(5) 0.6713(5) -0.3138(3)
C3 C 0.0622(5) 0.6342(6) -0.3036(4)
H1 H 0.0563 0.5981 -0.2944
H2 H 0.0519 0.6521 -0.2837
H3 H 0.0390 0.6283 -0.3262
C4 C 0.1455(5) 0.7219(5) -0.3269(3)
H4 H 0.1845 0.7403 -0.3319
C5 C 0.1163(6) 0.7547(6) -0.3351(4)
H5 H 0.1436 0.7919 -0.3448
H6 H 0.0871 0.7349 -0.3542
H7 H 0.0995 0.7587 -0.3116
O3 O 0.1968(3) 0.6208(3) -0.2202(2)
O4 O 0.2782(3) 0.6892(3) -0.2386(2)
C6 C 0.2404(4) 0.6681(4) -0.2136(3)
C7 C 0.2469(5) 0.6960(5) -0.1761(3)
C8 C 0.2967(6) 0.7535(5) -0.1725(4)
H8 H 0.3182 0.7636 -0.1963
H9 H 0.2842 0.7804 -0.1674
H10 H 0.3204 0.7542 -0.1516
C9 C 0.2089(7) 0.6688(6) -0.1503(4)
H11 H 0.1796 0.6323 -0.1565
C10 C 0.2079(9) 0.6914(8) -0.1108(5)
H12 H 0.1753 0.6633 -0.0966
H13 H 0.2422 0.6999 -0.0971
H14 H 0.2056 0.7256 -0.1133
O5 O 0.0606(3) 0.4475(3) -0.2377(3)
O6 O 0.1486(3) 0.5090(3) -0.2468(2)
C11 C 0.1095(4) 0.4594(4) -0.2461(3)
C12 C 0.1231(5) 0.4141(5) -0.2552(3)
C13 C 0.1820(6) 0.4339(6) -0.2656(4)
H15 H 0.2032 0.4749 -0.2652
H16 H 0.1984 0.4193 -0.2473
H17 H 0.1835 0.4206 -0.2912
C14 C 0.0823(7) 0.3617(5) -0.2527(4)
H18 H 0.0469 0.3562 -0.2450
C15 C 0.0852(9) 0.3104(7) -0.2604(6)
H19 H 0.0484 0.2774 -0.2562
H20 H 0.0967 0.3108 -0.2868
H21 H 0.1125 0.3090 -0.2433
O7 O 0.1200(3) 0.5292(4) -0.1628(2)
O8 O 0.0282(3) 0.4817(3) -0.1633(2)
C16 C 0.0746(5) 0.4957(5) -0.1470(4)
C17 C 0.0740(6) 0.4716(6) -0.1096(4)
C18 C 0.0190(6) 0.4293(7) -0.0933(5)
H22 H -0.0111 0.4236 -0.1108
H23 H 0.0185 0.3938 -0.0897
H24 H 0.0134 0.4426 -0.0688
C19 C 0.1225(7) 0.4883(8) -0.0929(4)
H25 H 0.1552 0.5171 -0.1047
C20 C 0.1293(10) 0.4638(12) -0.0552(6)
H26 H 0.1690 0.4826 -0.0482
H27 H 0.1081 0.4697 -0.0351
H28 H 0.1152 0.4237 -0.0582
O9 O -0.0204(4) 0.6207(3) -0.1768(3)
O10 O 0.0492(4) 0.6060(4) -0.1823(3)
C21 C 0.0302(5) 0.6387(5) -0.1832(4)
C22 C 0.0697(5) 0.7004(5) -0.1904(4)
C23 C 0.1261(6) 0.7159(6) -0.2045(6)
H29 H 0.1284 0.6819 -0.2085
H30 H 0.1332 0.7362 -0.2285
H31 H 0.1542 0.7398 -0.1857
C24 C 0.0521(6) 0.7349(5) -0.1821(5)
H32 H 0.0147 0.7186 -0.1732
C25 C 0.0842(6) 0.7977(5) -0.1849(5)
H33 H 0.0603 0.8127 -0.1768
H34 H 0.1173 0.8127 -0.1685
H35 H 0.0959 0.8088 -0.2113
O11 O -0.0397(6) 0.5821(7) -0.0936(4)
O12 O 0.0162(8) 0.5517(9) -0.1031(5)
C26 C -0.0112(10) 0.5715(9) -0.0802(6)
C27 C 0.0163(9) 0.5838(8) -0.0429(5)
C28 C -0.0093(10) 0.6100(9) -0.0206(6)
H36 H -0.0347 0.6160 -0.0368
H37 H -0.0303 0.5856 0.0007
H38 H 0.0200 0.6461 -0.0107
C29 C 0.0530(10) 0.5688(9) -0.0317(7)
H39 H 0.0663 0.5557 -0.0519
C30 C 0.0769(11) 0.5684(12) 0.0047(8)
H40 H 0.1029 0.5543 0.0016
H41 H 0.0971 0.6065 0.0150
H42 H 0.0470 0.5442 0.0223
O13 O -0.0905(5) 0.4019(5) -0.2560(3)
O14 O -0.0352(4) 0.4831(4) -0.2299(3)
C31 C -0.0707(6) 0.4542(7) -0.2544(5)
C32 C -0.0910(6) 0.4821(8) -0.2814(5)
C33 C -0.0770(6) 0.5406(7) -0.2733(5)
H43 H -0.0542 0.5539 -0.2502
H44 H -0.0561 0.5646 -0.2948
H45 H -0.1116 0.5418 -0.2697
C34 C -0.1215(8) 0.4510(9) -0.3106(6)
H46 H -0.1276 0.4140 -0.3123
C35 C -0.1457(10) 0.4687(11) -0.3395(7)
H47 H -0.1660 0.4381 -0.3577
H48 H -0.1717 0.4788 -0.3279
H49 H -0.1161 0.5012 -0.3529
O15 O -0.0946(3) 0.4076(3) -0.1554(3)
O16 O -0.1436(3) 0.3242(3) -0.1807(3)
C36 C -0.1385(4) 0.3601(5) -0.1563(4)
C37 C -0.1832(4) 0.3479(5) -0.1277(3)
C38 C -0.1702(5) 0.3916(5) -0.0971(4)
H50 H -0.1315 0.4220 -0.0999
H51 H -0.1956 0.4065 -0.0997
H52 H -0.1751 0.3743 -0.0720
C39 C -0.2320(5) 0.3017(5) -0.1318(4)
H53 H -0.2345 0.2782 -0.1523
C40 C -0.2839(5) 0.2812(6) -0.1083(5)
H54 H -0.3132 0.2454 -0.1185
H55 H -0.2758 0.2762 -0.0820
H56 H -0.2965 0.3086 -0.1093
Br1 Br 0.3333 0.6667 -0.3333
Pb1A Pb 0.40037(2) 0.62767(3) -0.28007(2)
Pb2A Pb 0.45120(2) 0.54328(3) -0.22154(2)
Pb3A Pb 0.47632(2) 0.43709(3) -0.15825(2)
Pb4A Pb 0.61280(2) 0.57015(3) -0.20394(2)
O1A O 0.4029(3) 0.5403(4) -0.2919(2)
O2A O 0.3289(3) 0.5395(4) -0.3152(2)
C1A C 0.3550(5) 0.5136(6) -0.3069(3)
C2A C 0.3287(5) 0.4517(7) -0.3138(3)
C3A C 0.3658(6) 0.4280(8) -0.3036(4)
H1A H 0.4019 0.4582 -0.2944
H2A H 0.3479 0.3998 -0.2837
H3A H 0.3717 0.4107 -0.3262
C4A C 0.2781(5) 0.4236(7) -0.3269(3)
H4A H 0.2597 0.4442 -0.3319
C5A C 0.2453(6) 0.3616(8) -0.3351(4)
H5A H 0.2081 0.3517 -0.3448
H6A H 0.2651 0.3522 -0.3542
H7A H 0.2413 0.3408 -0.3116
O3A O 0.3792(3) 0.5760(4) -0.2202(2)
O4A O 0.3108(3) 0.5890(4) -0.2386(2)
C6A C 0.3319(4) 0.5723(6) -0.2136(3)
C7A C 0.3040(5) 0.5509(7) -0.1761(3)
C8A C 0.2465(5) 0.5432(8) -0.1725(4)
H8A H 0.2364 0.5546 -0.1963
H9A H 0.2196 0.5038 -0.1674
H10A H 0.2458 0.5662 -0.1516
C9A C 0.3312(6) 0.5401(9) -0.1503(4)
H11A H 0.3677 0.5473 -0.1565
C10A C 0.3086(8) 0.5165(12) -0.1108(5)
H12A H 0.3367 0.5120 -0.0966
H13A H 0.3001 0.5423 -0.0971
H14A H 0.2744 0.4800 -0.1133
O5A O 0.5525(3) 0.6131(4) -0.2377(3)
O6A O 0.4910(3) 0.6396(4) -0.2468(2)
C11A C 0.5406(4) 0.6501(6) -0.2461(3)
C12A C 0.5859(5) 0.7090(7) -0.2552(3)
C13A C 0.5661(6) 0.7481(8) -0.2656(4)
H15A H 0.5251 0.7283 -0.2652
H16A H 0.5807 0.7791 -0.2473
H17A H 0.5794 0.7629 -0.2912
C14A C 0.6383(5) 0.7206(9) -0.2527(4)
H18A H 0.6438 0.6907 -0.2450
C15A C 0.6896(7) 0.7748(11) -0.2604(6)
H19A H 0.7226 0.7710 -0.2562
H20A H 0.6892 0.7859 -0.2868
H21A H 0.6910 0.8035 -0.2433
O7A O 0.4708(4) 0.5908(5) -0.1628(2)
O8A O 0.5183(3) 0.5465(4) -0.1633(2)
C16A C 0.5043(5) 0.5789(7) -0.1470(4)
C17A C 0.5284(6) 0.6024(8) -0.1096(4)
C18A C 0.5707(7) 0.5897(9) -0.0933(5)
H22A H 0.5764 0.5653 -0.1108
H23A H 0.6062 0.6247 -0.0897
H24A H 0.5574 0.5708 -0.0688
C19A C 0.5117(8) 0.6342(11) -0.0929(4)
H25A H 0.4829 0.6381 -0.1047
C20A C 0.5362(12) 0.6655(16) -0.0552(6)
H26A H 0.5174 0.6864 -0.0482
H27A H 0.5303 0.6384 -0.0351
H28A H 0.5763 0.6915 -0.0582
O9A O 0.3793(3) 0.3589(5) -0.1768(3)
O10A O 0.3940(4) 0.4432(6) -0.1823(3)
C21A C 0.3613(5) 0.3915(7) -0.1832(4)
C22A C 0.2996(5) 0.3693(7) -0.1904(4)
C23A C 0.2841(6) 0.4102(8) -0.2045(6)
H29A H 0.3181 0.4465 -0.2085
H30A H 0.2638 0.3970 -0.2285
H31A H 0.2602 0.4144 -0.1857
C24A C 0.2651(5) 0.3172(8) -0.1821(5)
H32A H 0.2814 0.2961 -0.1732
C25A C 0.2023(5) 0.2865(8) -0.1849(5)
H33A H 0.1873 0.2476 -0.1768
H34A H 0.1873 0.3046 -0.1685
H35A H 0.1912 0.2871 -0.2113
O11A O 0.4179(7) 0.3782(9) -0.0936(4)
O12A O 0.4483(9) 0.4645(12) -0.1031(5)
C26A C 0.4285(9) 0.4173(13) -0.0802(6)
C27A C 0.4162(8) 0.4325(12) -0.0429(5)
C28A C 0.3900(9) 0.3807(13) -0.0206(6)
H36A H 0.3840 0.3493 -0.0368
H37A H 0.4144 0.3841 0.0007
H38A H 0.3539 0.3739 -0.0107
C29A C 0.4312(9) 0.4842(13) -0.0317(7)
H39A H 0.4443 0.5106 -0.0519
C30A C 0.4316(12) 0.5085(16) 0.0047(8)
H40A H 0.4457 0.5486 0.0016
H41A H 0.3935 0.4906 0.0150
H42A H 0.4558 0.5028 0.0223
O13A O 0.5981(5) 0.5076(7) -0.2560(3)
O14A O 0.5169(4) 0.4817(6) -0.2299(3)
C31A C 0.5458(7) 0.4751(9) -0.2544(5)
C32A C 0.5179(8) 0.4269(10) -0.2814(5)
C33A C 0.4594(7) 0.3824(9) -0.2733(5)
H43A H 0.4461 0.3919 -0.2502
H44A H 0.4354 0.3793 -0.2948
H45A H 0.4582 0.3466 -0.2697
C34A C 0.5490(9) 0.4275(12) -0.3106(6)
H46A H 0.5860 0.4584 -0.3123
C35A C 0.5313(11) 0.3856(15) -0.3395(7)
H47A H 0.5619 0.3959 -0.3577
H48A H 0.5212 0.3495 -0.3279
H49A H 0.4988 0.3827 -0.3529
O15A O 0.5924(3) 0.4978(4) -0.1554(3)
O16A O 0.6758(3) 0.5322(4) -0.1807(3)
C36A C 0.6399(5) 0.5014(6) -0.1563(4)
C37A C 0.6521(5) 0.4689(6) -0.1277(3)
C38A C 0.6084(5) 0.4382(7) -0.0971(4)
H50A H 0.5780 0.4465 -0.0999
H51A H 0.5935 0.3979 -0.0997
H52A H 0.6257 0.4506 -0.0720
C39A C 0.6983(5) 0.4663(7) -0.1318(4)
H53A H 0.7218 0.4873 -0.1523
C40A C 0.7188(6) 0.4349(8) -0.1083(5)
H54A H 0.7546 0.4414 -0.1185
H55A H 0.7238 0.4480 -0.0820
H56A H 0.6914 0.3949 -0.1093
Pb1B Pb 0.37233(3) 0.77270(2) -0.28007(2)
Pb2B Pb 0.45672(3) 0.90792(2) -0.22154(2)
Pb3B Pb 0.56291(3) 1.03923(2) -0.15825(2)
Pb4B Pb 0.42985(3) 1.04265(2) -0.20394(2)
O1B O 0.4597(4) 0.8626(3) -0.2919(2)
O2B O 0.4605(4) 0.7894(3) -0.3152(2)
C1B C 0.4864(6) 0.8414(4) -0.3069(3)
C2B C 0.5483(7) 0.8770(5) -0.3138(3)
C3B C 0.5720(8) 0.9378(5) -0.3036(4)
H1B H 0.5418 0.9437 -0.2944
H2B H 0.6002 0.9481 -0.2837
H3B H 0.5893 0.9610 -0.3262
C4B C 0.5764(7) 0.8545(5) -0.3269(3)
H4B H 0.5558 0.8155 -0.3319
C5B C 0.6384(8) 0.8837(6) -0.3351(4)
H5B H 0.6483 0.8564 -0.3448
H6B H 0.6478 0.9129 -0.3542
H7B H 0.6592 0.9005 -0.3116
O3B O 0.4240(4) 0.8032(3) -0.2202(2)
O4B O 0.4110(4) 0.7218(3) -0.2386(2)
C6B C 0.4277(6) 0.7596(4) -0.2136(3)
C7B C 0.4491(7) 0.7531(5) -0.1761(3)
C8B C 0.4568(8) 0.7033(6) -0.1725(4)
H8B H 0.4454 0.6818 -0.1963
H9B H 0.4962 0.7158 -0.1674
H10B H 0.4338 0.6796 -0.1516
C9B C 0.4599(9) 0.7911(7) -0.1503(4)
H11B H 0.4527 0.8204 -0.1565
C10B C 0.4835(12) 0.7921(9) -0.1108(5)
H12B H 0.4880 0.8247 -0.0966
H13B H 0.4577 0.7578 -0.0971
H14B H 0.5200 0.7944 -0.1133
O5B O 0.3869(4) 0.9394(3) -0.2377(3)
O6B O 0.3604(4) 0.8514(3) -0.2468(2)
C11B C 0.3499(6) 0.8905(4) -0.2461(3)
C12B C 0.2910(7) 0.8769(5) -0.2552(3)
C13B C 0.2519(8) 0.8180(6) -0.2656(4)
H15B H 0.2717 0.7968 -0.2652
H16B H 0.2209 0.8016 -0.2473
H17B H 0.2371 0.8165 -0.2912
C14B C 0.2794(9) 0.9177(7) -0.2527(4)
H18B H 0.3093 0.9531 -0.2450
C15B C 0.2252(11) 0.9148(9) -0.2604(6)
H19B H 0.2290 0.9516 -0.2562
H20B H 0.2141 0.9033 -0.2868
H21B H 0.1965 0.8875 -0.2433
O7B O 0.4092(5) 0.8800(3) -0.1628(2)
O8B O 0.4535(4) 0.9718(3) -0.1633(2)
C16B C 0.4211(7) 0.9254(5) -0.1470(4)
C17B C 0.3976(8) 0.9260(6) -0.1096(4)
C18B C 0.4103(9) 0.9810(6) -0.0933(5)
H22B H 0.4347 1.0111 -0.1108
H23B H 0.3753 0.9815 -0.0897
H24B H 0.4292 0.9866 -0.0688
C19B C 0.3658(11) 0.8775(7) -0.0929(4)
H25B H 0.3619 0.8448 -0.1047
C20B C 0.3345(16) 0.8707(10) -0.0552(6)
H26B H 0.3136 0.8310 -0.0482
H27B H 0.3616 0.8919 -0.0351
H28B H 0.3085 0.8848 -0.0582
O9B O 0.6411(5) 1.0204(4) -0.1768(3)
O10B O 0.5568(6) 0.9508(4) -0.1823(3)
C21B C 0.6085(7) 0.9698(5) -0.1832(4)
C22B C 0.6307(7) 0.9303(5) -0.1904(4)
C23B C 0.5898(8) 0.8739(6) -0.2045(6)
H29B H 0.5535 0.8716 -0.2085
H30B H 0.6030 0.8668 -0.2285
H31B H 0.5856 0.8458 -0.1857
C24B C 0.6828(8) 0.9479(6) -0.1821(5)
H32B H 0.7039 0.9853 -0.1732
C25B C 0.7135(8) 0.9158(6) -0.1849(5)
H33B H 0.7524 0.9397 -0.1768
H34B H 0.6954 0.8827 -0.1685
H35B H 0.7129 0.9041 -0.2113
O11B O 0.6218(9) 1.0397(6) -0.0936(4)
O12B O 0.5355(12) 0.9838(8) -0.1031(5)
C26B C 0.5827(13) 1.0112(10) -0.0802(6)
C27B C 0.5675(12) 0.9837(9) -0.0429(5)
C28B C 0.6193(13) 1.0093(10) -0.0206(6)
H36B H 0.6507 1.0347 -0.0368
H37B H 0.6159 1.0303 0.0007
H38B H 0.6261 0.9800 -0.0107
C29B C 0.5158(13) 0.9470(10) -0.0317(7)
H39B H 0.4894 0.9337 -0.0519
C30B C 0.4915(16) 0.9231(11) 0.0047(8)
H40B H 0.4514 0.8971 0.0016
H41B H 0.5094 0.9029 0.0150
H42B H 0.4972 0.9530 0.0223
O13B O 0.4924(7) 1.0905(5) -0.2560(3)
O14B O 0.5183(6) 1.0352(4) -0.2299(3)
C31B C 0.5249(9) 1.0707(6) -0.2544(5)
C32B C 0.5731(10) 1.0910(6) -0.2814(5)
C33B C 0.6176(9) 1.0770(6) -0.2733(5)
H43B H 0.6081 1.0542 -0.2502
H44B H 0.6207 1.0561 -0.2948
H45B H 0.6534 1.1116 -0.2697
C34B C 0.5725(12) 1.1215(8) -0.3106(6)
H46B H 0.5416 1.1276 -0.3123
C35B C 0.6144(15) 1.1457(10) -0.3395(7)
H47B H 0.6041 1.1660 -0.3577
H48B H 0.6505 1.1717 -0.3279
H49B H 0.6173 1.1161 -0.3529
O15B O 0.5022(4) 1.0946(3) -0.1554(3)
O16B O 0.4678(4) 1.1436(3) -0.1807(3)
C36B C 0.4986(6) 1.1385(4) -0.1563(4)
C37B C 0.5311(6) 1.1832(4) -0.1277(3)
C38B C 0.5618(7) 1.1702(5) -0.0971(4)
H50B H 0.5535 1.1315 -0.0999
H51B H 0.6021 1.1956 -0.0997
H52B H 0.5494 1.1751 -0.0720
C39B C 0.5337(7) 1.2320(5) -0.1318(4)
H53B H 0.5127 1.2345 -0.1523
C40B C 0.5651(8) 1.2839(5) -0.1083(5)
H54B H 0.5586 1.3132 -0.1185
H55B H 0.5520 1.2758 -0.0820
H56B H 0.6051 1.2965 -0.1093
Pb1O Pb 0.43937(2) 0.73370(2) -0.38660(2)
Pb2O Pb 0.57459(2) 0.78453(2) -0.44513(2)
Pb3O Pb 0.70590(2) 0.80965(2) -0.50842(2)
Pb4O Pb 0.70932(2) 0.94613(2) -0.46273(2)
O1O O 0.5293(3) 0.7362(3) -0.3748(2)
O2O O 0.4561(3) 0.6622(3) -0.3515(2)
C1O C 0.5081(4) 0.6883(5) -0.3598(3)
C2O C 0.5437(5) 0.6620(5) -0.3529(3)
C3O C 0.6045(5) 0.6991(6) -0.3631(4)
H1O H 0.6104 0.7352 -0.3723
H2O H 0.6148 0.6812 -0.3830
H3O H 0.6277 0.7050 -0.3405
C4O C 0.5212(5) 0.6114(5) -0.3398(3)
H4O H 0.4822 0.5930 -0.3348
C5O C 0.5504(6) 0.5786(6) -0.3316(4)
H5O H 0.5231 0.5414 -0.3219
H6O H 0.5796 0.5984 -0.3125
H7O H 0.5672 0.5746 -0.3551
O3O O 0.4699(3) 0.7125(3) -0.4465(2)
O4O O 0.3885(3) 0.6441(3) -0.4281(2)
C6O C 0.4263(4) 0.6652(4) -0.4531(3)
C7O C 0.4198(5) 0.6373(5) -0.4906(3)
C8O C 0.3700(6) 0.5798(5) -0.4942(4)
H8O H 0.3485 0.5697 -0.4704
H9O H 0.3825 0.5529 -0.4993
H10O H 0.3463 0.5791 -0.5151
C9O C 0.4578(7) 0.6645(6) -0.5164(4)
H11O H 0.4871 0.7010 -0.5102
C10O C 0.4588(9) 0.6419(8) -0.5559(5)
H12O H 0.4914 0.6700 -0.5701
H13O H 0.4245 0.6334 -0.5696
H14O H 0.4611 0.6077 -0.5534
O5O O 0.6061(3) 0.8858(3) -0.4290(3)
O6O O 0.5181(3) 0.8243(3) -0.4199(2)
C11O C 0.5572(4) 0.8739(4) -0.4206(3)
C12O C 0.5436(5) 0.9192(5) -0.4115(3)
C13O C 0.4847(6) 0.8994(6) -0.4011(4)
H15O H 0.4635 0.8584 -0.4015
H16O H 0.4683 0.9140 -0.4194
H17O H 0.4832 0.9127 -0.3755
C14O C 0.5844(7) 0.9716(5) -0.4140(4)
H18O H 0.6198 0.9771 -0.4217
C15O C 0.5815(9) 1.0229(7) -0.4063(6)
H19O H 0.6183 1.0559 -0.4105
H20O H 0.5700 1.0225 -0.3799
H21O H 0.5542 1.0243 -0.4234
O7O O 0.5467(3) 0.8041(4) -0.5039(2)
O8O O 0.6385(3) 0.8516(3) -0.5034(2)
C16O C 0.5921(5) 0.8376(5) -0.5197(4)
C17O C 0.5927(6) 0.8617(6) -0.5571(4)
C18O C 0.6477(6) 0.9040(7) -0.5734(5)
H22O H 0.6778 0.9097 -0.5559
H23O H 0.6482 0.9395 -0.5770
H24O H 0.6533 0.8907 -0.5979
C19O C 0.5442(7) 0.8450(8) -0.5738(4)
H25O H 0.5115 0.8162 -0.5620
C20O C 0.5374(10) 0.8695(12) -0.6115(6)
H26O H 0.4977 0.8507 -0.6185
H27O H 0.5586 0.8636 -0.6316
H28O H 0.5515 0.9096 -0.6085
O9O O 0.6871(4) 0.7126(3) -0.4899(3)
O10O O 0.6175(4) 0.7273(4) -0.4844(3)
C21O C 0.6365(5) 0.6946(5) -0.4835(4)
C22O C 0.5970(5) 0.6329(5) -0.4763(4)
C23O C 0.5406(6) 0.6174(6) -0.4622(6)
H29O H 0.5383 0.6514 -0.4582
H30O H 0.5335 0.5971 -0.4382
H31O H 0.5125 0.5935 -0.4810
C24O C 0.6146(6) 0.5984(5) -0.4846(5)
H32O H 0.6520 0.6147 -0.4935
C25O C 0.5825(6) 0.5356(5) -0.4818(5)
H33O H 0.6064 0.5206 -0.4899
H34O H 0.5494 0.5206 -0.4982
H35O H 0.5708 0.5245 -0.4554
O11O O 0.7064(6) 0.7512(7) -0.5731(4)
O12O O 0.6505(8) 0.7816(9) -0.5636(5)
C26O C 0.6779(10) 0.7618(9) -0.5865(6)
C27O C 0.6504(9) 0.7495(8) -0.6238(5)
C28O C 0.6760(10) 0.7233(9) -0.6461(6)
H36O H 0.7014 0.7173 -0.6299
H37O H 0.6970 0.7477 -0.6674
H38O H 0.6467 0.6872 -0.6560
C29O C 0.6137(10) 0.7645(9) -0.6350(7)
H39O H 0.6004 0.7776 -0.6148
C30O C 0.5898(11) 0.7649(12) -0.6714(8)
H40O H 0.5638 0.7790 -0.6683
H41O H 0.5696 0.7268 -0.6817
H42O H 0.6197 0.7891 -0.6890
O13O O 0.7572(5) 0.9314(5) -0.4107(3)
O14O O 0.7019(4) 0.8502(4) -0.4368(3)
C31O C 0.7374(6) 0.8791(7) -0.4123(5)
C32O C 0.7577(6) 0.8512(8) -0.3853(5)
C33O C 0.7437(6) 0.7927(7) -0.3934(5)
H43O H 0.7209 0.7794 -0.4165
H44O H 0.7228 0.7687 -0.3719
H45O H 0.7783 0.7915 -0.3970
C34O C 0.7882(8) 0.8823(9) -0.3561(6)
H46O H 0.7943 0.9193 -0.3544
C35O C 0.8124(10) 0.8646(11) -0.3272(7)
H47O H 0.8327 0.8952 -0.3090
H48O H 0.8384 0.8545 -0.3388
H49O H 0.7828 0.8321 -0.3138
O15O O 0.7613(3) 0.9257(3) -0.5113(3)
O16O O 0.8103(3) 1.0091(3) -0.4860(3)
C36O C 0.8052(4) 0.9732(5) -0.5104(4)
C37O C 0.8499(4) 0.9854(5) -0.5390(3)
C38O C 0.8369(5) 0.9417(5) -0.5696(4)
H50O H 0.7982 0.9113 -0.5668
H51O H 0.8623 0.9268 -0.5670
H52O H 0.8418 0.9590 -0.5947
C39O C 0.8987(5) 1.0316(5) -0.5349(4)
H53O H 0.9012 1.0551 -0.5144
C40O C 0.9506(5) 1.0521(6) -0.5584(5)
H54O H 0.9799 1.0879 -0.5482
H55O H 0.9425 1.0571 -0.5847
H56O H 0.9632 1.0247 -0.5574
Pb1P Pb 0.26630(2) 0.70566(3) -0.38660(2)
Pb2P Pb 0.21547(2) 0.79005(3) -0.44513(2)
Pb3P Pb 0.19035(2) 0.89624(3) -0.50842(2)
Pb4P Pb 0.05387(2) 0.76318(3) -0.46273(2)
O1P O 0.2638(3) 0.7930(4) -0.3748(2)
O2P O 0.3378(3) 0.7938(4) -0.3515(2)
C1P C 0.3117(5) 0.8197(6) -0.3598(3)
C2P C 0.3380(5) 0.8816(7) -0.3529(3)
C3P C 0.3009(6) 0.9053(8) -0.3631(4)
H1P H 0.2648 0.8751 -0.3723
H2P H 0.3188 0.9335 -0.3830
H3P H 0.2950 0.9226 -0.3405
C4P C 0.3886(5) 0.9097(7) -0.3398(3)
H4P H 0.4070 0.8891 -0.3348
C5P C 0.4214(6) 0.9717(8) -0.3316(4)
H5P H 0.4586 0.9816 -0.3219
H6P H 0.4016 0.9811 -0.3125
H7P H 0.4254 0.9925 -0.3551
O3P O 0.2875(3) 0.7573(4) -0.4465(2)
O4P O 0.3559(3) 0.7443(4) -0.4281(2)
C6P C 0.3348(4) 0.7610(6) -0.4531(3)
C7P C 0.3627(5) 0.7824(7) -0.4906(3)
C8P C 0.4202(5) 0.7901(8) -0.4942(4)
H8P H 0.4303 0.7787 -0.4704
H9P H 0.4471 0.8295 -0.4993
H10P H 0.4209 0.7671 -0.5151
C9P C 0.3355(6) 0.7932(9) -0.5164(4)
H11P H 0.2990 0.7860 -0.5102
C10P C 0.3581(8) 0.8168(12) -0.5559(5)
H12P H 0.3300 0.8213 -0.5701
H13P H 0.3666 0.7910 -0.5696
H14P H 0.3923 0.8533 -0.5534
O5P O 0.1142(3) 0.7202(4) -0.4290(3)
O6P O 0.1757(3) 0.6937(4) -0.4199(2)
C11P C 0.1261(4) 0.6832(6) -0.4206(3)
C12P C 0.0808(5) 0.6243(7) -0.4115(3)
C13P C 0.1006(6) 0.5852(8) -0.4011(4)
H15P H 0.1416 0.6050 -0.4015
H16P H 0.0860 0.5542 -0.4194
H17P H 0.0873 0.5704 -0.3755
C14P C 0.0284(5) 0.6127(9) -0.4140(4)
H18P H 0.0229 0.6426 -0.4217
C15P C -0.0229(7) 0.5585(11) -0.4063(6)
H19P H -0.0559 0.5623 -0.4105
H20P H -0.0225 0.5474 -0.3799
H21P H -0.0243 0.5298 -0.4234
O7P O 0.1959(4) 0.7425(5) -0.5039(2)
O8P O 0.1484(3) 0.7868(4) -0.5034(2)
C16P C 0.1624(5) 0.7544(7) -0.5197(4)
C17P C 0.1383(6) 0.7309(8) -0.5571(4)
C18P C 0.0960(7) 0.7436(9) -0.5734(5)
H22P H 0.0903 0.7680 -0.5559
H23P H 0.0605 0.7086 -0.5770
H24P H 0.1093 0.7625 -0.5979
C19P C 0.1550(8) 0.6991(11) -0.5738(4)
H25P H 0.1838 0.6952 -0.5620
C20P C 0.1305(12) 0.6678(16) -0.6115(6)
H26P H 0.1493 0.6469 -0.6185
H27P H 0.1364 0.6949 -0.6316
H28P H 0.0904 0.6418 -0.6085
O9P O 0.2874(3) 0.9744(5) -0.4899(3)
O10P O 0.2727(4) 0.8901(6) -0.4844(3)
C21P C 0.3054(5) 0.9418(7) -0.4835(4)
C22P C 0.3671(5) 0.9640(7) -0.4763(4)
C23P C 0.3826(6) 0.9231(8) -0.4622(6)
H29P H 0.3486 0.8868 -0.4582
H30P H 0.4029 0.9363 -0.4382
H31P H 0.4065 0.9189 -0.4810
C24P C 0.4016(5) 1.0161(8) -0.4846(5)
H32P H 0.3853 1.0372 -0.4935
C25P C 0.4644(5) 1.0468(8) -0.4818(5)
H33P H 0.4794 1.0857 -0.4899
H34P H 0.4794 1.0287 -0.4982
H35P H 0.4755 1.0462 -0.4554
O11P O 0.2488(7) 0.9551(9) -0.5731(4)
O12P O 0.2184(9) 0.8688(12) -0.5636(5)
C26P C 0.2382(9) 0.9160(13) -0.5865(6)
C27P C 0.2505(8) 0.9008(12) -0.6238(5)
C28P C 0.2767(9) 0.9526(13) -0.6461(6)
H36P H 0.2827 0.9840 -0.6299
H37P H 0.2523 0.9492 -0.6674
H38P H 0.3128 0.9594 -0.6560
C29P C 0.2355(9) 0.8491(13) -0.6350(7)
H39P H 0.2224 0.8227 -0.6148
C30P C 0.2351(12) 0.8248(16) -0.6714(8)
H40P H 0.2210 0.7847 -0.6683
H41P H 0.2732 0.8427 -0.6817
H42P H 0.2109 0.8305 -0.6890
O13P O 0.0686(5) 0.8257(7) -0.4107(3)
O14P O 0.1498(4) 0.8516(6) -0.4368(3)
C31P C 0.1209(7) 0.8582(9) -0.4123(5)
C32P C 0.1488(8) 0.9064(10) -0.3853(5)
C33P C 0.2073(7) 0.9509(9) -0.3934(5)
H43P H 0.2206 0.9414 -0.4165
H44P H 0.2313 0.9540 -0.3719
H45P H 0.2085 0.9867 -0.3970
C34P C 0.1177(9) 0.9058(12) -0.3561(6)
H46P H 0.0807 0.8749 -0.3544
C35P C 0.1354(11) 0.9477(15) -0.3272(7)
H47P H 0.1048 0.9374 -0.3090
H48P H 0.1455 0.9838 -0.3388
H49P H 0.1679 0.9506 -0.3138
O15P O 0.0743(3) 0.8355(4) -0.5113(3)
O16P O -0.0091(3) 0.8011(4) -0.4860(3)
C36P C 0.0268(5) 0.8319(6) -0.5104(4)
C37P C 0.0146(5) 0.8644(6) -0.5390(3)
C38P C 0.0583(5) 0.8951(7) -0.5696(4)
H50P H 0.0887 0.8868 -0.5668
H51P H 0.0732 0.9354 -0.5670
H52P H 0.0410 0.8827 -0.5947
C39P C -0.0316(5) 0.8670(7) -0.5349(4)
H53P H -0.0551 0.8460 -0.5144
C40P C -0.0521(6) 0.8984(8) -0.5584(5)
H54P H -0.0879 0.8919 -0.5482
H55P H -0.0571 0.8853 -0.5847
H56P H -0.0247 0.9384 -0.5574
Pb1Q Pb 0.29434(3) 0.56063(2) -0.38660(2)
Pb2Q Pb 0.20995(3) 0.42541(2) -0.44513(2)
Pb3Q Pb 0.10376(3) 0.29410(2) -0.50842(2)
Pb4Q Pb 0.23682(3) 0.29068(2) -0.46273(2)
O1Q O 0.2070(4) 0.4707(3) -0.3748(2)
O2Q O 0.2062(4) 0.5439(3) -0.3515(2)
C1Q C 0.1803(6) 0.4919(4) -0.3598(3)
C2Q C 0.1184(7) 0.4563(5) -0.3529(3)
C3Q C 0.0947(8) 0.3955(5) -0.3631(4)
H1Q H 0.1249 0.3896 -0.3723
H2Q H 0.0665 0.3852 -0.3830
H3Q H 0.0774 0.3723 -0.3405
C4Q C 0.0903(7) 0.4788(5) -0.3398(3)
H4Q H 0.1109 0.5178 -0.3348
C5Q C 0.0283(8) 0.4496(6) -0.3316(4)
H5Q H 0.0184 0.4769 -0.3219
H6Q H 0.0189 0.4204 -0.3125
H7Q H 0.0075 0.4328 -0.3551
O3Q O 0.2427(4) 0.5301(3) -0.4465(2)
O4Q O 0.2557(4) 0.6115(3) -0.4281(2)
C6Q C 0.2390(6) 0.5737(4) -0.4531(3)
C7Q C 0.2176(7) 0.5802(5) -0.4906(3)
C8Q C 0.2099(8) 0.6300(6) -0.4942(4)
H8Q H 0.2213 0.6515 -0.4704
H9Q H 0.1705 0.6175 -0.4993
H10Q H 0.2329 0.6537 -0.5151
C9Q C 0.2068(9) 0.5422(7) -0.5164(4)
H11Q H 0.2140 0.5129 -0.5102
C10Q C 0.1832(12) 0.5412(9) -0.5559(5)
H12Q H 0.1787 0.5086 -0.5701
H13Q H 0.2090 0.5755 -0.5696
H14Q H 0.1467 0.5389 -0.5534
O5Q O 0.2798(4) 0.3939(3) -0.4290(3)
O6Q O 0.3063(4) 0.4819(3) -0.4199(2)
C11Q C 0.3168(6) 0.4428(4) -0.4206(3)
C12Q C 0.3757(7) 0.4564(5) -0.4115(3)
C13Q C 0.4148(8) 0.5153(6) -0.4011(4)
H15Q H 0.3950 0.5365 -0.4015
H16Q H 0.4458 0.5317 -0.4194
H17Q H 0.4296 0.5168 -0.3755
C14Q C 0.3873(9) 0.4156(7) -0.4140(4)
H18Q H 0.3574 0.3802 -0.4217
C15Q C 0.4415(11) 0.4185(9) -0.4063(6)
H19Q H 0.4377 0.3817 -0.4105
H20Q H 0.4526 0.4300 -0.3799
H21Q H 0.4702 0.4458 -0.4234
O7Q O 0.2575(5) 0.4533(3) -0.5039(2)
O8Q O 0.2132(4) 0.3615(3) -0.5034(2)
C16Q C 0.2456(7) 0.4079(5) -0.5197(4)
C17Q C 0.2691(8) 0.4073(6) -0.5571(4)
C18Q C 0.2564(9) 0.3523(6) -0.5734(5)
H22Q H 0.2320 0.3222 -0.5559
H23Q H 0.2914 0.3518 -0.5770
H24Q H 0.2375 0.3467 -0.5979
C19Q C 0.3009(11) 0.4558(7) -0.5738(4)
H25Q H 0.3048 0.4885 -0.5620
C20Q C 0.3322(16) 0.4626(10) -0.6115(6)
H26Q H 0.3531 0.5023 -0.6185
H27Q H 0.3051 0.4414 -0.6316
H28Q H 0.3582 0.4485 -0.6085
O9Q O 0.0256(5) 0.3129(4) -0.4899(3)
O10Q O 0.1099(6) 0.3825(4) -0.4844(3)
C21Q C 0.0582(7) 0.3635(5) -0.4835(4)
C22Q C 0.0360(7) 0.4030(5) -0.4763(4)
C23Q C 0.0769(8) 0.4594(6) -0.4622(6)
H29Q H 0.1132 0.4617 -0.4582
H30Q H 0.0637 0.4665 -0.4382
H31Q H 0.0811 0.4875 -0.4810
C24Q C -0.0161(8) 0.3854(6) -0.4846(5)
H32Q H -0.0372 0.3480 -0.4935
C25Q C -0.0468(8) 0.4175(6) -0.4818(5)
H33Q H -0.0857 0.3936 -0.4899
H34Q H -0.0287 0.4506 -0.4982
H35Q H -0.0462 0.4292 -0.4554
O11Q O 0.0449(9) 0.2936(6) -0.5731(4)
O12Q O 0.1312(12) 0.3495(8) -0.5636(5)
C26Q C 0.0840(13) 0.3221(10) -0.5865(6)
C27Q C 0.0992(12) 0.3496(9) -0.6238(5)
C28Q C 0.0474(13) 0.3240(10) -0.6461(6)
H36Q H 0.0160 0.2986 -0.6299
H37Q H 0.0508 0.3030 -0.6674
H38Q H 0.0406 0.3533 -0.6560
C29Q C 0.1509(13) 0.3863(10) -0.6350(7)
H39Q H 0.1773 0.3996 -0.6148
C30Q C 0.1752(16) 0.4102(11) -0.6714(8)
H40Q H 0.2153 0.4362 -0.6683
H41Q H 0.1573 0.4304 -0.6817
H42Q H 0.1695 0.3803 -0.6890
O13Q O 0.1743(7) 0.2428(5) -0.4107(3)
O14Q O 0.1484(6) 0.2981(4) -0.4368(3)
C31Q C 0.1418(9) 0.2626(6) -0.4123(5)
C32Q C 0.0936(10) 0.2423(6) -0.3853(5)
C33Q C 0.0491(9) 0.2563(6) -0.3934(5)
H43Q H 0.0586 0.2791 -0.4165
H44Q H 0.0460 0.2772 -0.3719
H45Q H 0.0133 0.2217 -0.3970
C34Q C 0.0942(12) 0.2118(8) -0.3561(6)
H46Q H 0.1251 0.2057 -0.3544
C35Q C 0.0523(15) 0.1876(10) -0.3272(7)
H47Q H 0.0626 0.1673 -0.3090
H48Q H 0.0162 0.1616 -0.3388
H49Q H 0.0494 0.2172 -0.3138
O15Q O 0.1645(4) 0.2387(3) -0.5113(3)
O16Q O 0.1989(4) 0.1897(3) -0.4860(3)
C36Q C 0.1681(6) 0.1948(4) -0.5104(4)
C37Q C 0.1356(6) 0.1501(4) -0.5390(3)
C38Q C 0.1049(7) 0.1631(5) -0.5696(4)
H50Q H 0.1132 0.2018 -0.5668
H51Q H 0.0646 0.1377 -0.5670
H52Q H 0.1173 0.1582 -0.5947
C39Q C 0.1330(7) 0.1013(5) -0.5349(4)
H53Q H 0.1540 0.0988 -0.5144
C40Q C 0.1016(8) 0.0494(5) -0.5584(5)
H54Q H 0.1081 0.0201 -0.5482
H55Q H 0.1147 0.0575 -0.5847
H56Q H 0.0616 0.0368 -0.5574
Pb3F Pb 0.29410(2) 0.19035(2) -0.49158(2)
Pb3G Pb 0.80965(2) 1.10376(3) -0.49158(2)
Pb3H Pb -0.10376(3) 0.70590(2) -0.49158(2)
Pb3L Pb 0.37256(2) 1.14299(2) -0.17508(2)
Pb3M Pb -0.14299(2) 0.22958(3) -0.17508(2)
Pb3N Pb 0.77042(3) 0.62744(2) -0.17508(2)
Pb4F Pb 0.29068(2) 1.05387(2) -0.53727(2)
Pb4G Pb -0.05387(2) 0.23682(3) -0.53727(2)
Pb4H Pb 0.76318(3) 0.70932(2) -0.53727(2)
Pb4L Pb 0.37598(2) 0.27947(2) -0.12939(2)
Pb4M Pb 0.72053(2) 1.09652(3) -0.12939(2)
Pb4N Pb -0.09652(3) 0.62402(2) -0.12939(2)
O9F O 0.3129(4) 0.2874(3) -0.5101(3)
O9G O 0.7126(3) 1.0256(5) -0.5101(3)
O9H O -0.0256(5) 0.6871(4) -0.5101(3)
O9L O 0.3537(4) 1.0460(3) -0.1565(3)
O9M O -0.0460(3) 0.3078(5) -0.1565(3)
O9N O 0.6922(5) 0.6463(4) -0.1565(3)
O11F O 0.2936(6) 0.2488(7) -0.4269(4)
O11G O 0.7512(7) 1.0449(9) -0.4269(4)
O11H O -0.0449(9) 0.7064(6) -0.4269(4)
O11L O 0.3730(6) 1.0846(7) -0.2397(4)
O11M O -0.0846(7) 0.2885(9) -0.2397(4)
O11N O 0.7115(9) 0.6270(6) -0.2397(4)
O16F O 0.1897(3) 0.9909(3) -0.5140(3)
O16G O 0.0091(3) 0.1989(4) -0.5140(3)
O16H O 0.8011(4) 0.8103(3) -0.5140(3)
O16L O 0.4769(3) 0.3425(3) -0.1526(3)
O16M O 0.6575(3) 1.1345(4) -0.1526(3)
O16N O -0.1345(4) 0.5231(3) -0.1526(3)
loop_
_geom_bond_atom_site_label_1
_geom_bond_atom_site_label_2
_geom_bond_site_symmetry_1
_geom_bond_site_symmetry_2
Pb1 O1 1_555 1_555
Pb2 O1 1_555 1_555
Pb3 O8 1_555 1_555
Pb4 O5 1_555 1_555
O1 C1 1_555 1_555
O2 Pb1 1_555 1_555
C1 O2 1_555 1_555
C2 C1 1_555 1_555
C3 C2 1_555 1_555
H1 C3 1_555 1_555
H2 C3 1_555 1_555
H3 C3 1_555 1_555
C4 C2 1_555 1_555
H4 C4 1_555 1_555
C5 C4 1_555 1_555
H5 C5 1_555 1_555
H6 C5 1_555 1_555
H7 C5 1_555 1_555
O3 Pb1 1_555 1_555
O4 Pb1 1_555 1_555
C6 O3 1_555 1_555
C7 C6 1_555 1_555
C8 C7 1_555 1_555
H8 C8 1_555 1_555
H9 C8 1_555 1_555
H10 C8 1_555 1_555
C9 C7 1_555 1_555
H11 C9 1_555 1_555
C10 C9 1_555 1_555
H12 C10 1_555 1_555
H13 C10 1_555 1_555
H14 C10 1_555 1_555
O5 Pb2 1_555 1_555
O6 Pb1 1_555 1_555
C11 O5 1_555 1_555
C12 C11 1_555 1_555
C13 C12 1_555 1_555
H15 C13 1_555 1_555
H16 C13 1_555 1_555
H17 C13 1_555 1_555
C14 C12 1_555 1_555
H18 C14 1_555 1_555
C15 C14 1_555 1_555
H19 C15 1_555 1_555
H20 C15 1_555 1_555
H21 C15 1_555 1_555
O7 Pb2 1_555 1_555
O8 Pb2 1_555 1_555
C16 O7 1_555 1_555
C17 C16 1_555 1_555
C18 C17 1_555 1_555
H22 C18 1_555 1_555
H23 C18 1_555 1_555
H24 C18 1_555 1_555
C19 C17 1_555 1_555
H25 C19 1_555 1_555
C20 C19 1_555 1_555
H26 C20 1_555 1_555
H27 C20 1_555 1_555
H28 C20 1_555 1_555
O9 Pb3 1_555 1_555
O10 Pb2 1_555 1_555
C21 O9 1_555 1_555
C22 C21 1_555 1_555
C23 C22 1_555 1_555
H29 C23 1_555 1_555
H30 C23 1_555 1_555
H31 C23 1_555 1_555
C24 C22 1_555 1_555
H32 C24 1_555 1_555
C25 C24 1_555 1_555
H33 C25 1_555 1_555
H34 C25 1_555 1_555
H35 C25 1_555 1_555
O11 Pb3 1_555 1_555
O12 Pb3 1_555 1_555
C26 O11 1_555 1_555
C27 C26 1_555 1_555
C28 C27 1_555 1_555
H36 C28 1_555 1_555
H37 C28 1_555 1_555
H38 C28 1_555 1_555
C29 C27 1_555 1_555
H39 C29 1_555 1_555
C30 C29 1_555 1_555
H40 C30 1_555 1_555
H41 C30 1_555 1_555
H42 C30 1_555 1_555
O13 Pb4 1_555 1_555
O14 Pb3 1_555 1_555
C31 O13 1_555 1_555
C32 C31 1_555 1_555
C33 C32 1_555 1_555
H43 C33 1_555 1_555
H44 C33 1_555 1_555
H45 C33 1_555 1_555
C34 C32 1_555 1_555
H46 C34 1_555 1_555
C35 C34 1_555 1_555
H47 C35 1_555 1_555
H48 C35 1_555 1_555
H49 C35 1_555 1_555
O15 Pb3 1_555 1_555
O16 Pb4 1_555 1_555
C36 O15 1_555 1_555
C37 C36 1_555 1_555
C38 C37 1_555 1_555
H50 C38 1_555 1_555
H51 C38 1_555 1_555
H52 C38 1_555 1_555
C39 C37 1_555 1_555
H53 C39 1_555 1_555
C40 C39 1_555 1_555
H54 C40 1_555 1_555
H55 C40 1_555 1_555
H56 C40 1_555 1_555
Br1 Pb1 1_555 1_555
Pb1A Br1 1_555 1_555
Pb2A O1A 1_555 1_555
Pb3A O8A 1_555 1_555
Pb4A O5A 1_555 1_555
O1A Pb1A 1_555 1_555
O2A Pb1A 1_555 1_555
C1A O1A 1_555 1_555
C2A C1A 1_555 1_555
C3A C2A 1_555 1_555
H1A C3A 1_555 1_555
H2A C3A 1_555 1_555
H3A C3A 1_555 1_555
C4A C2A 1_555 1_555
H4A C4A 1_555 1_555
C5A C4A 1_555 1_555
H5A C5A 1_555 1_555
H6A C5A 1_555 1_555
H7A C5A 1_555 1_555
O3A Pb1A 1_555 1_555
O4A Pb1 1_555 1_555
C6A O3A 1_555 1_555
C7A C6A 1_555 1_555
C8A C7A 1_555 1_555
H8A C8A 1_555 1_555
H9A C8A 1_555 1_555
H10A C8A 1_555 1_555
C9A C7A 1_555 1_555
H11A C9A 1_555 1_555
C10A C9A 1_555 1_555
H12A C10A 1_555 1_555
H13A C10A 1_555 1_555
H14A C10A 1_555 1_555
O5A Pb2A 1_555 1_555
O6A Pb1A 1_555 1_555
C11A O5A 1_555 1_555
C12A C11A 1_555 1_555
C13A C12A 1_555 1_555
H15A C13A 1_555 1_555
H16A C13A 1_555 1_555
H17A C13A 1_555 1_555
C14A C12A 1_555 1_555
H18A C14A 1_555 1_555
C15A C14A 1_555 1_555
H19A C15A 1_555 1_555
H20A C15A 1_555 1_555
H21A C15A 1_555 1_555
O7A Pb2A 1_555 1_555
O8A Pb2A 1_555 1_555
C16A O7A 1_555 1_555
C17A C16A 1_555 1_555
C18A C17A 1_555 1_555
H22A C18A 1_555 1_555
H23A C18A 1_555 1_555
H24A C18A 1_555 1_555
C19A C17A 1_555 1_555
H25A C19A 1_555 1_555
C20A C19A 1_555 1_555
H26A C20A 1_555 1_555
H27A C20A 1_555 1_555
H28A C20A 1_555 1_555
O9A Pb3A 1_555 1_555
O10A Pb2A 1_555 1_555
C21A O9A 1_555 1_555
C22A C21A 1_555 1_555
C23A C22A 1_555 1_555
H29A C23A 1_555 1_555
H30A C23A 1_555 1_555
H31A C23A 1_555 1_555
C24A C22A 1_555 1_555
H32A C24A 1_555 1_555
C25A C24A 1_555 1_555
H33A C25A 1_555 1_555
H34A C25A 1_555 1_555
H35A C25A 1_555 1_555
O11A Pb3A 1_555 1_555
O12A Pb3A 1_555 1_555
C26A O11A 1_555 1_555
C27A C26A 1_555 1_555
C28A C27A 1_555 1_555
H36A C28A 1_555 1_555
H37A C28A 1_555 1_555
H38A C28A 1_555 1_555
C29A C27A 1_555 1_555
H39A C29A 1_555 1_555
C30A C29A 1_555 1_555
H40A C30A 1_555 1_555
H41A C30A 1_555 1_555
H42A C30A 1_555 1_555
O13A Pb4A 1_555 1_555
O14A Pb3A 1_555 1_555
C31A O13A 1_555 1_555
C32A C31A 1_555 1_555
C33A C32A 1_555 1_555
H43A C33A 1_555 1_555
H44A C33A 1_555 1_555
H45A C33A 1_555 1_555
C34A C32A 1_555 1_555
H46A C34A 1_555 1_555
C35A C34A 1_555 1_555
H47A C35A 1_555 1_555
H48A C35A 1_555 1_555
H49A C35A 1_555 1_555
O15A Pb3A 1_555 1_555
O16A Pb4A 1_555 1_555
C36A O15A 1_555 1_555
C37A C36A 1_555 1_555
C38A C37A 1_555 1_555
H50A C38A 1_555 1_555
H51A C38A 1_555 1_555
H52A C38A 1_555 1_555
C39A C37A 1_555 1_555
H53A C39A 1_555 1_555
C40A C39A 1_555 1_555
H54A C40A 1_555 1_555
H55A C40A 1_555 1_555
H56A C40A 1_555 1_555
Pb1B O4 1_555 1_555
Pb2B O1B 1_555 1_555
Pb3B O8B 1_555 1_555
Pb4B O5B 1_555 1_555
O1B Pb1B 1_555 1_555
O2B Pb1B 1_555 1_555
C1B O1B 1_555 1_555
C2B C1B 1_555 1_555
C3B C2B 1_555 1_555
H1B C3B 1_555 1_555
H2B C3B 1_555 1_555
H3B C3B 1_555 1_555
C4B C2B 1_555 1_555
H4B C4B 1_555 1_555
C5B C4B 1_555 1_555
H5B C5B 1_555 1_555
H6B C5B 1_555 1_555
H7B C5B 1_555 1_555
O3B Pb1B 1_555 1_555
O4B Pb1A 1_555 1_555
C6B O3B 1_555 1_555
C7B C6B 1_555 1_555
C8B C7B 1_555 1_555
H8B C8B 1_555 1_555
H9B C8B 1_555 1_555
H10B C8B 1_555 1_555
C9B C7B 1_555 1_555
H11B C9B 1_555 1_555
C10B C9B 1_555 1_555
H12B C10B 1_555 1_555
H13B C10B 1_555 1_555
H14B C10B 1_555 1_555
O5B Pb2B 1_555 1_555
O6B Pb1B 1_555 1_555
C11B O5B 1_555 1_555
C12B C11B 1_555 1_555
C13B C12B 1_555 1_555
H15B C13B 1_555 1_555
H16B C13B 1_555 1_555
H17B C13B 1_555 1_555
C14B C12B 1_555 1_555
H18B C14B 1_555 1_555
C15B C14B 1_555 1_555
H19B C15B 1_555 1_555
H20B C15B 1_555 1_555
H21B C15B 1_555 1_555
O7B Pb2B 1_555 1_555
O8B Pb2B 1_555 1_555
C16B O7B 1_555 1_555
C17B C16B 1_555 1_555
C18B C17B 1_555 1_555
H22B C18B 1_555 1_555
H23B C18B 1_555 1_555
H24B C18B 1_555 1_555
C19B C17B 1_555 1_555
H25B C19B 1_555 1_555
C20B C19B 1_555 1_555
H26B C20B 1_555 1_555
H27B C20B 1_555 1_555
H28B C20B 1_555 1_555
O9B Pb3B 1_555 1_555
O10B Pb2B 1_555 1_555
C21B O9B 1_555 1_555
C22B C21B 1_555 1_555
C23B C22B 1_555 1_555
H29B C23B 1_555 1_555
H30B C23B 1_555 1_555
H31B C23B 1_555 1_555
C24B C22B 1_555 1_555
H32B C24B 1_555 1_555
C25B C24B 1_555 1_555
H33B C25B 1_555 1_555
H34B C25B 1_555 1_555
H35B C25B 1_555 1_555
O11B Pb3B 1_555 1_555
O12B Pb3B 1_555 1_555
C26B O11B 1_555 1_555
C27B C26B 1_555 1_555
C28B C27B 1_555 1_555
H36B C28B 1_555 1_555
H37B C28B 1_555 1_555
H38B C28B 1_555 1_555
C29B C27B 1_555 1_555
H39B C29B 1_555 1_555
C30B C29B 1_555 1_555
H40B C30B 1_555 1_555
H41B C30B 1_555 1_555
H42B C30B 1_555 1_555
O13B Pb4B 1_555 1_555
O14B Pb3B 1_555 1_555
C31B O13B 1_555 1_555
C32B C31B 1_555 1_555
C33B C32B 1_555 1_555
H43B C33B 1_555 1_555
H44B C33B 1_555 1_555
H45B C33B 1_555 1_555
C34B C32B 1_555 1_555
H46B C34B 1_555 1_555
C35B C34B 1_555 1_555
H47B C35B 1_555 1_555
H48B C35B 1_555 1_555
H49B C35B 1_555 1_555
O15B Pb3B 1_555 1_555
O16B Pb4B 1_555 1_555
C36B O15B 1_555 1_555
C37B C36B 1_555 1_555
C38B C37B 1_555 1_555
H50B C38B 1_555 1_555
H51B C38B 1_555 1_555
H52B C38B 1_555 1_555
C39B C37B 1_555 1_555
H53B C39B 1_555 1_555
C40B C39B 1_555 1_555
H54B C40B 1_555 1_555
H55B C40B 1_555 1_555
H56B C40B 1_555 1_555
Pb1O Br1 1_555 1_555
Pb2O O1O 1_555 1_555
Pb3O O8O 1_555 1_555
Pb4O O5O 1_555 1_555
O1O Pb1O 1_555 1_555
O2O Pb1A 1_555 1_555
C1O O1O 1_555 1_555
C2O C1O 1_555 1_555
C3O C2O 1_555 1_555
H1O C3O 1_555 1_555
H2O C3O 1_555 1_555
H3O C3O 1_555 1_555
C4O C2O 1_555 1_555
H4O C4O 1_555 1_555
C5O C4O 1_555 1_555
H5O C5O 1_555 1_555
H6O C5O 1_555 1_555
H7O C5O 1_555 1_555
O3O Pb1O 1_555 1_555
O4O Pb1O 1_555 1_555
C6O O3O 1_555 1_555
C7O C6O 1_555 1_555
C8O C7O 1_555 1_555
H8O C8O 1_555 1_555
H9O C8O 1_555 1_555
H10O C8O 1_555 1_555
C9O C7O 1_555 1_555
H11O C9O 1_555 1_555
C10O C9O 1_555 1_555
H12O C10O 1_555 1_555
H13O C10O 1_555 1_555
H14O C10O 1_555 1_555
O5O Pb2O 1_555 1_555
O6O Pb1O 1_555 1_555
C11O O5O 1_555 1_555
C12O C11O 1_555 1_555
C13O C12O 1_555 1_555
H15O C13O 1_555 1_555
H16O C13O 1_555 1_555
H17O C13O 1_555 1_555
C14O C12O 1_555 1_555
H18O C14O 1_555 1_555
C15O C14O 1_555 1_555
H19O C15O 1_555 1_555
H20O C15O 1_555 1_555
H21O C15O 1_555 1_555
O7O Pb2O 1_555 1_555
O8O Pb2O 1_555 1_555
C16O O7O 1_555 1_555
C17O C16O 1_555 1_555
C18O C17O 1_555 1_555
H22O C18O 1_555 1_555
H23O C18O 1_555 1_555
H24O C18O 1_555 1_555
C19O C17O 1_555 1_555
H25O C19O 1_555 1_555
C20O C19O 1_555 1_555
H26O C20O 1_555 1_555
H27O C20O 1_555 1_555
H28O C20O 1_555 1_555
O9O Pb3O 1_555 1_555
O10O Pb2O 1_555 1_555
C21O O9O 1_555 1_555
C22O C21O 1_555 1_555
C23O C22O 1_555 1_555
H29O C23O 1_555 1_555
H30O C23O 1_555 1_555
H31O C23O 1_555 1_555
C24O C22O 1_555 1_555
H32O C24O 1_555 1_555
C25O C24O 1_555 1_555
H33O C25O 1_555 1_555
H34O C25O 1_555 1_555
H35O C25O 1_555 1_555
O11O Pb3O 1_555 1_555
O12O Pb3O 1_555 1_555
C26O O11O 1_555 1_555
C27O C26O 1_555 1_555
C28O C27O 1_555 1_555
H36O C28O 1_555 1_555
H37O C28O 1_555 1_555
H38O C28O 1_555 1_555
C29O C27O 1_555 1_555
H39O C29O 1_555 1_555
C30O C29O 1_555 1_555
H40O C30O 1_555 1_555
H41O C30O 1_555 1_555
H42O C30O 1_555 1_555
O13O Pb4O 1_555 1_555
O14O Pb3O 1_555 1_555
C31O O13O 1_555 1_555
C32O C31O 1_555 1_555
C33O C32O 1_555 1_555
H43O C33O 1_555 1_555
H44O C33O 1_555 1_555
H45O C33O 1_555 1_555
C34O C32O 1_555 1_555
H46O C34O 1_555 1_555
C35O C34O 1_555 1_555
H47O C35O 1_555 1_555
H48O C35O 1_555 1_555
H49O C35O 1_555 1_555
O15O Pb3O 1_555 1_555
O16O Pb4O 1_555 1_555
C36O O15O 1_555 1_555
C37O C36O 1_555 1_555
C38O C37O 1_555 1_555
H50O C38O 1_555 1_555
H51O C38O 1_555 1_555
H52O C38O 1_555 1_555
C39O C37O 1_555 1_555
H53O C39O 1_555 1_555
C40O C39O 1_555 1_555
H54O C40O 1_555 1_555
H55O C40O 1_555 1_555
H56O C40O 1_555 1_555
Pb1P O2 1_555 1_555
Pb2P O1P 1_555 1_555
Pb3P O8P 1_555 1_555
Pb4P O5P 1_555 1_555
O1P Pb1P 1_555 1_555
O2P Pb1B 1_555 1_555
C1P O1P 1_555 1_555
C2P C1P 1_555 1_555
C3P C2P 1_555 1_555
H1P C3P 1_555 1_555
H2P C3P 1_555 1_555
H3P C3P 1_555 1_555
C4P C2P 1_555 1_555
H4P C4P 1_555 1_555
C5P C4P 1_555 1_555
H5P C5P 1_555 1_555
H6P C5P 1_555 1_555
H7P C5P 1_555 1_555
O3P Pb1P 1_555 1_555
O4P Pb1O 1_555 1_555
C6P O3P 1_555 1_555
C7P C6P 1_555 1_555
C8P C7P 1_555 1_555
H8P C8P 1_555 1_555
H9P C8P 1_555 1_555
H10P C8P 1_555 1_555
C9P C7P 1_555 1_555
H11P C9P 1_555 1_555
C10P C9P 1_555 1_555
H12P C10P 1_555 1_555
H13P C10P 1_555 1_555
H14P C10P 1_555 1_555
O5P Pb2P 1_555 1_555
O6P Pb1P 1_555 1_555
C11P O5P 1_555 1_555
C12P C11P 1_555 1_555
C13P C12P 1_555 1_555
H15P C13P 1_555 1_555
H16P C13P 1_555 1_555
H17P C13P 1_555 1_555
C14P C12P 1_555 1_555
H18P C14P 1_555 1_555
C15P C14P 1_555 1_555
H19P C15P 1_555 1_555
H20P C15P 1_555 1_555
H21P C15P 1_555 1_555
O7P Pb2P 1_555 1_555
O8P Pb2P 1_555 1_555
C16P O7P 1_555 1_555
C17P C16P 1_555 1_555
C18P C17P 1_555 1_555
H22P C18P 1_555 1_555
H23P C18P 1_555 1_555
H24P C18P 1_555 1_555
C19P C17P 1_555 1_555
H25P C19P 1_555 1_555
C20P C19P 1_555 1_555
H26P C20P 1_555 1_555
H27P C20P 1_555 1_555
H28P C20P 1_555 1_555
O9P Pb3P 1_555 1_555
O10P Pb2P 1_555 1_555
C21P O9P 1_555 1_555
C22P C21P 1_555 1_555
C23P C22P 1_555 1_555
H29P C23P 1_555 1_555
H30P C23P 1_555 1_555
H31P C23P 1_555 1_555
C24P C22P 1_555 1_555
H32P C24P 1_555 1_555
C25P C24P 1_555 1_555
H33P C25P 1_555 1_555
H34P C25P 1_555 1_555
H35P C25P 1_555 1_555
O11P Pb3P 1_555 1_555
O12P Pb3P 1_555 1_555
C26P O11P 1_555 1_555
C27P C26P 1_555 1_555
C28P C27P 1_555 1_555
H36P C28P 1_555 1_555
H37P C28P 1_555 1_555
H38P C28P 1_555 1_555
C29P C27P 1_555 1_555
H39P C29P 1_555 1_555
C30P C29P 1_555 1_555
H40P C30P 1_555 1_555
H41P C30P 1_555 1_555
H42P C30P 1_555 1_555
O13P Pb4P 1_555 1_555
O14P Pb3P 1_555 1_555
C31P O13P 1_555 1_555
C32P C31P 1_555 1_555
C33P C32P 1_555 1_555
H43P C33P 1_555 1_555
H44P C33P 1_555 1_555
H45P C33P 1_555 1_555
C34P C32P 1_555 1_555
H46P C34P 1_555 1_555
C35P C34P 1_555 1_555
H47P C35P 1_555 1_555
H48P C35P 1_555 1_555
H49P C35P 1_555 1_555
O15P Pb3P 1_555 1_555
O16P Pb4P 1_555 1_555
C36P O15P 1_555 1_555
C37P C36P 1_555 1_555
C38P C37P 1_555 1_555
H50P C38P 1_555 1_555
H51P C38P 1_555 1_555
H52P C38P 1_555 1_555
C39P C37P 1_555 1_555
H53P C39P 1_555 1_555
C40P C39P 1_555 1_555
H54P C40P 1_555 1_555
H55P C40P 1_555 1_555
H56P C40P 1_555 1_555
Pb1Q Br1 1_555 1_555
Pb2Q O1Q 1_555 1_555
Pb3Q O8Q 1_555 1_555
Pb4Q O5Q 1_555 1_555
O1Q Pb1Q 1_555 1_555
O2Q Pb1 1_555 1_555
C1Q O1Q 1_555 1_555
C2Q C1Q 1_555 1_555
C3Q C2Q 1_555 1_555
H1Q C3Q 1_555 1_555
H2Q C3Q 1_555 1_555
H3Q C3Q 1_555 1_555
C4Q C2Q 1_555 1_555
H4Q C4Q 1_555 1_555
C5Q C4Q 1_555 1_555
H5Q C5Q 1_555 1_555
H6Q C5Q 1_555 1_555
H7Q C5Q 1_555 1_555
O3Q Pb1Q 1_555 1_555
O4Q Pb1P 1_555 1_555
C6Q O3Q 1_555 1_555
C7Q C6Q 1_555 1_555
C8Q C7Q 1_555 1_555
H8Q C8Q 1_555 1_555
H9Q C8Q 1_555 1_555
H10Q C8Q 1_555 1_555
C9Q C7Q 1_555 1_555
H11Q C9Q 1_555 1_555
C10Q C9Q 1_555 1_555
H12Q C10Q 1_555 1_555
H13Q C10Q 1_555 1_555
H14Q C10Q 1_555 1_555
O5Q Pb2Q 1_555 1_555
O6Q Pb1Q 1_555 1_555
C11Q O5Q 1_555 1_555
C12Q C11Q 1_555 1_555
C13Q C12Q 1_555 1_555
H15Q C13Q 1_555 1_555
H16Q C13Q 1_555 1_555
H17Q C13Q 1_555 1_555
C14Q C12Q 1_555 1_555
H18Q C14Q 1_555 1_555
C15Q C14Q 1_555 1_555
H19Q C15Q 1_555 1_555
H20Q C15Q 1_555 1_555
H21Q C15Q 1_555 1_555
O7Q Pb2Q 1_555 1_555
O8Q Pb2Q 1_555 1_555
C16Q O7Q 1_555 1_555
C17Q C16Q 1_555 1_555
C18Q C17Q 1_555 1_555
H22Q C18Q 1_555 1_555
H23Q C18Q 1_555 1_555
H24Q C18Q 1_555 1_555
C19Q C17Q 1_555 1_555
H25Q C19Q 1_555 1_555
C20Q C19Q 1_555 1_555
H26Q C20Q 1_555 1_555
H27Q C20Q 1_555 1_555
H28Q C20Q 1_555 1_555
O9Q Pb3Q 1_555 1_555
O10Q Pb2Q 1_555 1_555
C21Q O9Q 1_555 1_555
C22Q C21Q 1_555 1_555
C23Q C22Q 1_555 1_555
H29Q C23Q 1_555 1_555
H30Q C23Q 1_555 1_555
H31Q C23Q 1_555 1_555
C24Q C22Q 1_555 1_555
H32Q C24Q 1_555 1_555
C25Q C24Q 1_555 1_555
H33Q C25Q 1_555 1_555
H34Q C25Q 1_555 1_555
H35Q C25Q 1_555 1_555
O11Q Pb3Q 1_555 1_555
O12Q Pb3Q 1_555 1_555
C26Q O11Q 1_555 1_555
C27Q C26Q 1_555 1_555
C28Q C27Q 1_555 1_555
H36Q C28Q 1_555 1_555
H37Q C28Q 1_555 1_555
H38Q C28Q 1_555 1_555
C29Q C27Q 1_555 1_555
H39Q C29Q 1_555 1_555
C30Q C29Q 1_555 1_555
H40Q C30Q 1_555 1_555
H41Q C30Q 1_555 1_555
H42Q C30Q 1_555 1_555
O13Q Pb4Q 1_555 1_555
O14Q Pb3Q 1_555 1_555
C31Q O13Q 1_555 1_555
C32Q C31Q 1_555 1_555
C33Q C32Q 1_555 1_555
H43Q C33Q 1_555 1_555
H44Q C33Q 1_555 1_555
H45Q C33Q 1_555 1_555
C34Q C32Q 1_555 1_555
H46Q C34Q 1_555 1_555
C35Q C34Q 1_555 1_555
H47Q C35Q 1_555 1_555
H48Q C35Q 1_555 1_555
H49Q C35Q 1_555 1_555
O15Q Pb3Q 1_555 1_555
O16Q Pb4Q 1_555 1_555
C36Q O15Q 1_555 1_555
C37Q C36Q 1_555 1_555
C38Q C37Q 1_555 1_555
H50Q C38Q 1_555 1_555
H51Q C38Q 1_555 1_555
H52Q C38Q 1_555 1_555
C39Q C37Q 1_555 1_555
H53Q C39Q 1_555 1_555
C40Q C39Q 1_555 1_555
H54Q C40Q 1_555 1_555
H55Q C40Q 1_555 1_555
H56Q C40Q 1_555 1_555
Pb3F O16Q 1_555 1_555
Pb3G O16O 1_555 1_555
Pb3H O16P 1_555 1_555
Pb3L O16B 1_555 1_555
Pb3M O16 1_555 1_555
Pb3N O16A 1_555 1_555
Pb4F O9P 1_555 1_555
Pb4G O9Q 1_555 1_555
Pb4H O9O 1_555 1_555
Pb4L O9A 1_555 1_555
Pb4M O9B 1_555 1_555
Pb4N O9 1_555 1_555
O9F Pb4Q 1_555 1_555
O9G Pb4O 1_555 1_555
O9H Pb4P 1_555 1_555
O9L Pb4B 1_555 1_555
O9M Pb4 1_555 1_555
O9N Pb4A 1_555 1_555
O11F Pb4Q 1_555 1_555
O11G Pb4O 1_555 1_555
O11H Pb4P 1_555 1_555
O11L Pb4B 1_555 1_555
O11M Pb4 1_555 1_555
O11N Pb4A 1_555 1_555
O16F Pb3P 1_555 1_555
O16G Pb3Q 1_555 1_555
O16H Pb3O 1_555 1_555
O16L Pb3A 1_555 1_555
O16M Pb3B 1_555 1_555
O16N Pb3 1_555 1_555
Pb2 O3 1_555 1_555
Pb2 O6 1_555 1_555
Pb3 O10 1_555 1_555
Pb4 O8 1_555 1_555
Pb4 O14 1_555 1_555
Pb4 O15 1_555 1_555
O4 C6 1_555 1_555
O6 C11 1_555 1_555
O8 C16 1_555 1_555
O10 C21 1_555 1_555
O11 Pb4N 1_555 1_555
O12 C26 1_555 1_555
O14 C31 1_555 1_555
O16 C36 1_555 1_555
Br1 Pb1B 1_555 1_555
Br1 Pb1P 1_555 1_555
Pb1A O4A 1_555 1_555
Pb2A O3A 1_555 1_555
Pb2A O6A 1_555 1_555
Pb3A O10A 1_555 1_555
Pb4A O8A 1_555 1_555
Pb4A O14A 1_555 1_555
Pb4A O15A 1_555 1_555
O2A C1A 1_555 1_555
O2A Pb1Q 1_555 1_555
O4A C6A 1_555 1_555
O6A C11A 1_555 1_555
O8A C16A 1_555 1_555
O10A C21A 1_555 1_555
O11A Pb4L 1_555 1_555
O12A C26A 1_555 1_555
O14A C31A 1_555 1_555
O16A C36A 1_555 1_555
Pb1B O4B 1_555 1_555
Pb2B O3B 1_555 1_555
Pb2B O6B 1_555 1_555
Pb3B O10B 1_555 1_555
Pb4B O8B 1_555 1_555
Pb4B O14B 1_555 1_555
Pb4B O15B 1_555 1_555
O2B C1B 1_555 1_555
O2B Pb1O 1_555 1_555
O4B C6B 1_555 1_555
O6B C11B 1_555 1_555
O8B C16B 1_555 1_555
O10B C21B 1_555 1_555
O11B Pb4M 1_555 1_555
O12B C26B 1_555 1_555
O14B C31B 1_555 1_555
O16B C36B 1_555 1_555
Pb1O O2O 1_555 1_555
Pb2O O3O 1_555 1_555
Pb2O O6O 1_555 1_555
Pb3O O10O 1_555 1_555
Pb4O O8O 1_555 1_555
Pb4O O14O 1_555 1_555
Pb4O O15O 1_555 1_555
O2O C1O 1_555 1_555
O4O C6O 1_555 1_555
O4O Pb1Q 1_555 1_555
O6O C11O 1_555 1_555
O8O C16O 1_555 1_555
O10O C21O 1_555 1_555
O11O Pb4H 1_555 1_555
O12O C26O 1_555 1_555
O14O C31O 1_555 1_555
O16O C36O 1_555 1_555
Pb1P O2P 1_555 1_555
Pb1P O4P 1_555 1_555
Pb2P O3P 1_555 1_555
Pb2P O6P 1_555 1_555
Pb3P O10P 1_555 1_555
Pb4P O8P 1_555 1_555
Pb4P O14P 1_555 1_555
Pb4P O15P 1_555 1_555
O2P C1P 1_555 1_555
O4P C6P 1_555 1_555
O6P C11P 1_555 1_555
O8P C16P 1_555 1_555
O10P C21P 1_555 1_555
O11P Pb4F 1_555 1_555
O12P C26P 1_555 1_555
O14P C31P 1_555 1_555
O16P C36P 1_555 1_555
Pb1Q O2Q 1_555 1_555
Pb1Q O4Q 1_555 1_555
Pb2Q O3Q 1_555 1_555
Pb2Q O6Q 1_555 1_555
Pb3Q O10Q 1_555 1_555
Pb4Q O8Q 1_555 1_555
Pb4Q O14Q 1_555 1_555
Pb4Q O15Q 1_555 1_555
O2Q C1Q 1_555 1_555
O4Q C6Q 1_555 1_555
O6Q C11Q 1_555 1_555
O8Q C16Q 1_555 1_555
O10Q C21Q 1_555 1_555
O11Q Pb4G 1_555 1_555
O12Q C26Q 1_555 1_555
O14Q C31Q 1_555 1_555
O16Q C36Q 1_555 1_555
Pb3F O9F 1_555 1_555
Pb3F O11F 1_555 1_555
Pb3G O9G 1_555 1_555
Pb3G O11G 1_555 1_555
Pb3H O9H 1_555 1_555
Pb3H O11H 1_555 1_555
Pb3L O9L 1_555 1_555
Pb3L O11L 1_555 1_555
Pb3M O9M 1_555 1_555
Pb3M O11M 1_555 1_555
Pb3N O9N 1_555 1_555
Pb3N O11N 1_555 1_555
Pb4F O16F 1_555 1_555
Pb4G O16G 1_555 1_555
Pb4H O16H 1_555 1_555
Pb4L O16L 1_555 1_555
Pb4M O16M 1_555 1_555
Pb4N O16N 1_555 1_555

#END
