
#######################################################################
#
#                 Cambridge Crystallographic Data Centre
#                                CCDC 
#
#######################################################################
#
# If this CIF has been generated from an entry in the Cambridge 
# Structural Database, then it will include bibliographic, chemical, 
# crystal, experimental, refinement or atomic coordinate data resulting 
# from the CCDC's data processing and validation procedures.
#
#######################################################################

data_ZUTWIW
_symmetry_cell_setting           rhombohedral
_symmetry_space_group_name_H-M   'R -3'
_symmetry_Int_Tables_number      148
_space_group_name_Hall           '-R 3'
loop_
_symmetry_equiv_pos_site_id
_symmetry_equiv_pos_as_xyz
1 x,y,z
2 -y,x-y,z
3 -x+y,-x,z
4 2/3+x,1/3+y,1/3+z
5 2/3-y,1/3+x-y,1/3+z
6 2/3-x+y,1/3-x,1/3+z
7 1/3+x,2/3+y,2/3+z
8 1/3-y,2/3+x-y,2/3+z
9 1/3-x+y,2/3-x,2/3+z
10 -x,-y,-z
11 y,-x+y,-z
12 x-y,x,-z
13 1/3-x,2/3-y,2/3-z
14 1/3+y,2/3-x+y,2/3-z
15 1/3+x-y,2/3+x,2/3-z
16 2/3-x,1/3-y,1/3-z
17 2/3+y,1/3-x+y,1/3-z
18 2/3+x-y,1/3+x,1/3-z
_cell_length_a                   27.550(5)
_cell_length_b                   27.550(5)
_cell_length_c                   35.109(7)
_cell_angle_alpha                90
_cell_angle_beta                 90
_cell_angle_gamma                120
_cell_volume                     23077.7
loop_
_atom_site_label
_atom_site_type_symbol
_atom_site_fract_x
_atom_site_fract_y
_atom_site_fract_z
Pb1 Pb 0.26747(2) 0.56273(2) 0.11411(2)
Pb2 Pb 0.21546(2) 0.42666(2) 0.05541(2)
Pb3 Pb 0.19026(2) 0.29455(2) -0.00719(2)
Pb4 Pb 0.05327(2) 0.29175(2) 0.03728(2)
O1 O 0.2647(4) 0.4725(3) 0.1253(3)
O2 O 0.3395(3) 0.5451(3) 0.1489(2)
C1 C 0.3126(5) 0.4941(5) 0.1404(3)
C2 C 0.3368(5) 0.4563(5) 0.1477(3)
C3 C 0.3004(7) 0.3966(5) 0.1367(5)
H1 H 0.2642 0.3907 0.1276
H2 H 0.3186 0.3871 0.1163
H3 H 0.2945 0.3725 0.1588
C4 C 0.3881(5) 0.4782(5) 0.1610(3)
H4 H 0.4068 0.5171 0.1667
C5 C 0.4206(6) 0.4482(6) 0.1683(4)
H5 H 0.4578 0.4749 0.1782
H6 H 0.4005 0.4182 0.1870
H7 H 0.4245 0.4320 0.1444
O3 O 0.2871(4) 0.5315(3) 0.0541(3)
O4 O 0.3564(3) 0.6127(3) 0.0716(2)
C6 C 0.3348(5) 0.5742(5) 0.0468(3)
C7 C 0.3615(5) 0.5793(5) 0.0099(4)
C8 C 0.4207(6) 0.6299(7) 0.0054(4)
H8 H 0.4321 0.6513 0.0292
H9 H 0.4470 0.6168 -0.0007
H10 H 0.4209 0.6540 -0.0152
C9 C 0.3351(7) 0.5430(7) -0.0172(5)
H11 H 0.2977 0.5149 -0.0114
C10 C 0.3553(9) 0.5395(10) -0.0557(5)
H12 H 0.3254 0.5075 -0.0694
H13 H 0.3656 0.5741 -0.0698
H14 H 0.3881 0.5347 -0.0534
O5 O 0.1144(3) 0.3955(3) 0.0703(3)
O6 O 0.1769(3) 0.4839(3) 0.0810(2)
C11 C 0.1266(5) 0.4447(5) 0.0801(3)
C12 C 0.0814(5) 0.4581(6) 0.0891(4)
C13 C 0.1002(6) 0.5171(6) 0.0999(4)
H15 H 0.1412 0.5389 0.0999
H16 H 0.0855 0.5333 0.0816
H17 H 0.0862 0.5179 0.1255
C14 C 0.0284(6) 0.4171(7) 0.0864(5)
H18 H 0.0223 0.3811 0.0795
C15 C -0.0229(7) 0.4223(9) 0.0930(8)
H19 H -0.0566 0.3857 0.0891
H20 H -0.0224 0.4349 0.1192
H21 H -0.0229 0.4496 0.0752
O7 O 0.1951(4) 0.4537(3) -0.0038(2)
O8 O 0.1492(3) 0.3623(3) -0.0030(2)
C16 C 0.1626(5) 0.4082(5) -0.0197(4)
C17 C 0.1381(7) 0.4068(6) -0.0571(4)
C18 C 0.0975(8) 0.3523(7) -0.0737(5)
H22 H 0.0920 0.3222 -0.0563
H23 H 0.0616 0.3510 -0.0777
H24 H 0.1117 0.3474 -0.0981
C19 C 0.1544(9) 0.4554(7) -0.0737(5)
H25 H 0.1822 0.4880 -0.0610
C20 C 0.1323(15) 0.4638(11) -0.1115(7)
H26 H 0.1511 0.5038 -0.1176
H27 H 0.1398 0.4438 -0.1317
H28 H 0.0918 0.4490 -0.1095
O9 O 0.2873(4) 0.3128(4) 0.0119(3)
O10 O 0.2726(4) 0.3826(4) 0.0164(4)
C21 C 0.3060(5) 0.3649(5) 0.0171(4)
C22 C 0.3666(5) 0.4027(5) 0.0240(4)
C23 C 0.3823(7) 0.4597(7) 0.0377(7)
H29 H 0.3483 0.4620 0.0417
H30 H 0.4029 0.4672 0.0617
H31 H 0.4060 0.4875 0.0186
C24 C 0.4021(6) 0.3851(6) 0.0156(5)
H32 H 0.3860 0.3476 0.0068
C25 C 0.4646(6) 0.4174(7) 0.0184(7)
H33 H 0.4798 0.3936 0.0104
H34 H 0.4793 0.4504 0.0019
H35 H 0.4756 0.4293 0.0449
O11 O 0.2194(11) 0.3503(11) -0.0609(5)
O12 O 0.2520(8) 0.2966(7) -0.0724(4)
C26 C 0.2372(12) 0.3276(12) -0.0854(6)
C27 C 0.2506(8) 0.3524(8) -0.1217(5)
C28 C 0.2776(12) 0.3295(12) -0.1461(7)
H36 H 0.2853 0.3040 -0.1312
H37 H 0.2527 0.3089 -0.1674
H38 H 0.3129 0.3602 -0.1561
C29 C 0.2349(9) 0.3874(10) -0.1325(6)
H39 H 0.2212 0.4009 -0.1127
C30 C 0.2350(12) 0.4102(11) -0.1722(6)
H40 H 0.2204 0.4361 -0.1708
H41 H 0.2734 0.4301 -0.1821
H42 H 0.2113 0.3790 -0.1893
O13 O 0.0667(5) 0.2445(5) 0.0902(4)
O14 O 0.1486(5) 0.2989(4) 0.0644(3)
C31 C 0.1196(8) 0.2629(6) 0.0888(5)
C32 C 0.1464(7) 0.2421(6) 0.1152(5)
C33 C 0.2042(8) 0.2563(7) 0.1079(5)
H43 H 0.2178 0.2793 0.0848
H44 H 0.2277 0.2773 0.1296
H45 H 0.2057 0.2218 0.1043
C34 C 0.1154(9) 0.2117(9) 0.1439(6)
H46 H 0.0784 0.2056 0.1457
C35 C 0.1341(12) 0.1858(11) 0.1740(7)
H47 H 0.1035 0.1652 0.1922
H48 H 0.1442 0.1599 0.1620
H49 H 0.1667 0.2153 0.1874
O15 O 0.0738(4) 0.2392(4) -0.0109(3)
O16 O -0.0096(3) 0.1900(3) 0.0146(3)
C36 C 0.0265(5) 0.1951(5) -0.0097(4)
C37 C 0.0140(5) 0.1502(5) -0.0382(4)
C38 C 0.0582(6) 0.1647(6) -0.0690(4)
H50 H 0.0885 0.2035 -0.0656
H51 H 0.0734 0.1394 -0.0670
H52 H 0.0411 0.1605 -0.0941
C39 C -0.0321(5) 0.1020(5) -0.0341(4)
H53 H -0.0559 0.0993 -0.0136
C40 C -0.0519(7) 0.0499(6) -0.0584(5)
H54 H -0.0879 0.0201 -0.0487
H55 H -0.0564 0.0585 -0.0848
H56 H -0.0242 0.0376 -0.0573
Cl1 Cl 0.3333 0.6667 0.1667
Pb1A Pb 0.43727(2) 0.70474(3) 0.11411(2)
Pb2A Pb 0.57334(2) 0.78880(3) 0.05541(2)
Pb3A Pb 0.70545(2) 0.89571(3) -0.00719(2)
Pb4A Pb 0.70825(2) 0.76152(3) 0.03728(2)
O1A O 0.5275(3) 0.7922(5) 0.1253(3)
O2A O 0.4549(3) 0.7944(4) 0.1489(2)
C1A C 0.5059(5) 0.8185(7) 0.1404(3)
C2A C 0.5437(5) 0.8805(7) 0.1477(3)
C3A C 0.6034(5) 0.9038(9) 0.1367(5)
H1A H 0.6093 0.8735 0.1276
H2A H 0.6129 0.9315 0.1163
H3A H 0.6275 0.9220 0.1588
C4A C 0.5218(5) 0.9099(7) 0.1610(3)
H4A H 0.4829 0.8897 0.1667
C5A C 0.5518(6) 0.9724(8) 0.1683(4)
H5A H 0.5251 0.9829 0.1782
H6A H 0.5818 0.9823 0.1870
H7A H 0.5680 0.9925 0.1444
O3A O 0.4685(3) 0.7556(5) 0.0541(3)
O4A O 0.3873(3) 0.7437(4) 0.0716(2)
C6A C 0.4258(5) 0.7606(7) 0.0468(3)
C7A C 0.4207(5) 0.7822(7) 0.0099(4)
C8A C 0.3701(7) 0.7908(9) 0.0054(4)
H8A H 0.3487 0.7808 0.0292
H9A H 0.3832 0.8302 -0.0007
H10A H 0.3460 0.7669 -0.0152
C9A C 0.4570(7) 0.7921(10) -0.0172(5)
H11A H 0.4851 0.7828 -0.0114
C10A C 0.4605(10) 0.8158(13) -0.0557(5)
H12A H 0.4925 0.8179 -0.0694
H13A H 0.4259 0.7915 -0.0698
H14A H 0.4653 0.8534 -0.0534
O5A O 0.6045(3) 0.7189(4) 0.0703(3)
O6A O 0.5161(3) 0.6930(4) 0.0810(2)
C11A C 0.5553(5) 0.6819(7) 0.0801(3)
C12A C 0.5419(6) 0.6233(8) 0.0891(4)
C13A C 0.4829(6) 0.5831(8) 0.0999(4)
H15A H 0.4611 0.6023 0.0999
H16A H 0.4667 0.5522 0.0816
H17A H 0.4821 0.5683 0.1255
C14A C 0.5829(7) 0.6113(9) 0.0864(5)
H18A H 0.6189 0.6412 0.0795
C15A C 0.5777(9) 0.5548(11) 0.0930(8)
H19A H 0.6143 0.5577 0.0891
H20A H 0.5651 0.5427 0.1192
H21A H 0.5504 0.5275 0.0752
O7A O 0.5463(3) 0.7414(5) -0.0038(2)
O8A O 0.6377(3) 0.7869(4) -0.0030(2)
C16A C 0.5918(5) 0.7544(7) -0.0197(4)
C17A C 0.5932(6) 0.7313(9) -0.0571(4)
C18A C 0.6477(7) 0.7452(11) -0.0737(5)
H22A H 0.6778 0.7698 -0.0563
H23A H 0.6490 0.7106 -0.0777
H24A H 0.6526 0.7643 -0.0981
C19A C 0.5446(7) 0.6990(11) -0.0737(5)
H25A H 0.5120 0.6942 -0.0610
C20A C 0.5362(11) 0.6685(19) -0.1115(7)
H26A H 0.4962 0.6473 -0.1176
H27A H 0.5562 0.6960 -0.1317
H28A H 0.5510 0.6428 -0.1095
O9A O 0.6872(4) 0.9745(6) 0.0119(3)
O10A O 0.6174(4) 0.8900(6) 0.0164(4)
C21A C 0.6351(5) 0.9411(7) 0.0171(4)
C22A C 0.5973(5) 0.9639(7) 0.0240(4)
C23A C 0.5403(7) 0.9226(10) 0.0377(7)
H29A H 0.5380 0.8863 0.0417
H30A H 0.5328 0.9357 0.0617
H31A H 0.5125 0.9185 0.0186
C24A C 0.6149(6) 1.0170(8) 0.0156(5)
H32A H 0.6524 1.0384 0.0068
C25A C 0.5826(7) 1.0472(9) 0.0184(7)
H33A H 0.6064 1.0862 0.0104
H34A H 0.5496 1.0289 0.0019
H35A H 0.5707 1.0463 0.0449
O11A O 0.6497(11) 0.8691(16) -0.0609(5)
O12A O 0.7034(7) 0.9554(11) -0.0724(4)
C26A C 0.6724(12) 0.9096(17) -0.0854(6)
C27A C 0.6476(8) 0.8982(11) -0.1217(5)
C28A C 0.6705(12) 0.9481(17) -0.1461(7)
H36A H 0.6960 0.9813 -0.1312
H37A H 0.6911 0.9438 -0.1674
H38A H 0.6398 0.9527 -0.1561
C29A C 0.6126(10) 0.8475(13) -0.1325(6)
H39A H 0.5991 0.8203 -0.1127
C30A C 0.5898(11) 0.8248(16) -0.1722(6)
H40A H 0.5639 0.7843 -0.1708
H41A H 0.5699 0.8433 -0.1821
H42A H 0.6210 0.8323 -0.1893
O13A O 0.7555(5) 0.8222(7) 0.0902(4)
O14A O 0.7011(4) 0.8497(6) 0.0644(3)
C31A C 0.7371(6) 0.8567(10) 0.0888(5)
C32A C 0.7579(6) 0.9043(9) 0.1152(5)
C33A C 0.7437(7) 0.9479(11) 0.1079(5)
H43A H 0.7207 0.9385 0.0848
H44A H 0.7227 0.9504 0.1296
H45A H 0.7782 0.9839 0.1043
C34A C 0.7883(9) 0.9037(13) 0.1439(6)
H46A H 0.7944 0.8728 0.1457
C35A C 0.8142(11) 0.9483(16) 0.1740(7)
H47A H 0.8348 0.9383 0.1922
H48A H 0.8401 0.9843 0.1620
H49A H 0.7847 0.9514 0.1874
O15A O 0.7608(4) 0.8346(6) -0.0109(3)
O16A O 0.8100(3) 0.8004(4) 0.0146(3)
C36A C 0.8049(5) 0.8314(7) -0.0097(4)
C37A C 0.8498(5) 0.8638(7) -0.0382(4)
C38A C 0.8353(6) 0.8935(8) -0.0690(4)
H50A H 0.7965 0.8850 -0.0656
H51A H 0.8606 0.9340 -0.0670
H52A H 0.8395 0.8806 -0.0941
C39A C 0.8980(5) 0.8659(7) -0.0341(4)
H53A H 0.9007 0.8448 -0.0136
C40A C 0.9501(6) 0.8982(9) -0.0584(5)
H54A H 0.9799 0.8920 -0.0487
H55A H 0.9415 0.8851 -0.0848
H56A H 0.9624 0.9382 -0.0573
Pb1B Pb 0.29526(3) 0.73253(2) 0.11411(2)
Pb2B Pb 0.21120(3) 0.78454(2) 0.05541(2)
Pb3B Pb 0.10429(3) 0.80974(2) -0.00719(2)
Pb4B Pb 0.23848(3) 0.94673(2) 0.03728(2)
O1B O 0.2078(5) 0.7353(4) 0.1253(3)
O2B O 0.2056(4) 0.6605(3) 0.1489(2)
C1B C 0.1815(7) 0.6874(5) 0.1404(3)
C2B C 0.1195(7) 0.6632(5) 0.1477(3)
C3B C 0.0962(9) 0.6996(7) 0.1367(5)
H1B H 0.1265 0.7358 0.1276
H2B H 0.0685 0.6814 0.1163
H3B H 0.0780 0.7055 0.1588
C4B C 0.0901(7) 0.6119(5) 0.1610(3)
H4B H 0.1103 0.5932 0.1667
C5B C 0.0276(8) 0.5794(6) 0.1683(4)
H5B H 0.0171 0.5422 0.1782
H6B H 0.0177 0.5995 0.1870
H7B H 0.0075 0.5755 0.1444
O3B O 0.2444(5) 0.7129(4) 0.0541(3)
O4B O 0.2563(4) 0.6436(3) 0.0716(2)
C6B C 0.2394(7) 0.6652(5) 0.0468(3)
C7B C 0.2178(7) 0.6385(5) 0.0099(4)
C8B C 0.2092(9) 0.5793(6) 0.0054(4)
H8B H 0.2192 0.5679 0.0292
H9B H 0.1698 0.5530 -0.0007
H10B H 0.2331 0.5791 -0.0152
C9B C 0.2079(10) 0.6649(7) -0.0172(5)
H11B H 0.2172 0.7023 -0.0114
C10B C 0.1842(13) 0.6447(9) -0.0557(5)
H12B H 0.1821 0.6746 -0.0694
H13B H 0.2085 0.6344 -0.0698
H14B H 0.1466 0.6119 -0.0534
O5B O 0.2811(4) 0.8856(3) 0.0703(3)
O6B O 0.3070(4) 0.8231(3) 0.0810(2)
C11B C 0.3181(7) 0.8734(5) 0.0801(3)
C12B C 0.3767(8) 0.9186(5) 0.0891(4)
C13B C 0.4169(8) 0.8998(6) 0.0999(4)
H15B H 0.3977 0.8588 0.0999
H16B H 0.4478 0.9145 0.0816
H17B H 0.4317 0.9138 0.1255
C14B C 0.3887(9) 0.9716(6) 0.0864(5)
H18B H 0.3588 0.9777 0.0795
C15B C 0.4452(11) 1.0229(7) 0.0930(8)
H19B H 0.4423 1.0566 0.0891
H20B H 0.4573 1.0224 0.1192
H21B H 0.4725 1.0229 0.0752
O7B O 0.2586(5) 0.8049(4) -0.0038(2)
O8B O 0.2131(4) 0.8508(3) -0.0030(2)
C16B C 0.2456(7) 0.8374(5) -0.0197(4)
C17B C 0.2687(9) 0.8619(7) -0.0571(4)
C18B C 0.2548(11) 0.9025(8) -0.0737(5)
H22B H 0.2302 0.9080 -0.0563
H23B H 0.2894 0.9384 -0.0777
H24B H 0.2357 0.8883 -0.0981
C19B C 0.3010(11) 0.8456(9) -0.0737(5)
H25B H 0.3058 0.8178 -0.0610
C20B C 0.3315(19) 0.8677(15) -0.1115(7)
H26B H 0.3527 0.8489 -0.1176
H27B H 0.3040 0.8602 -0.1317
H28B H 0.3572 0.9082 -0.1095
O9B O 0.0255(6) 0.7127(4) 0.0119(3)
O10B O 0.1100(6) 0.7274(4) 0.0164(4)
C21B C 0.0589(7) 0.6940(5) 0.0171(4)
C22B C 0.0361(7) 0.6334(5) 0.0240(4)
C23B C 0.0774(10) 0.6177(7) 0.0377(7)
H29B H 0.1137 0.6517 0.0417
H30B H 0.0643 0.5971 0.0617
H31B H 0.0815 0.5940 0.0186
C24B C -0.0170(8) 0.5979(6) 0.0156(5)
H32B H -0.0384 0.6140 0.0068
C25B C -0.0472(9) 0.5354(6) 0.0184(7)
H33B H -0.0862 0.5202 0.0104
H34B H -0.0289 0.5207 0.0019
H35B H -0.0463 0.5244 0.0449
O11B O 0.1309(16) 0.7806(11) -0.0609(5)
O12B O 0.0446(11) 0.7480(8) -0.0724(4)
C26B C 0.0904(17) 0.7628(12) -0.0854(6)
C27B C 0.1018(11) 0.7494(8) -0.1217(5)
C28B C 0.0519(17) 0.7224(12) -0.1461(7)
H36B H 0.0187 0.7147 -0.1312
H37B H 0.0562 0.7473 -0.1674
H38B H 0.0473 0.6871 -0.1561
C29B C 0.1525(13) 0.7651(9) -0.1325(6)
H39B H 0.1797 0.7788 -0.1127
C30B C 0.1752(16) 0.7650(12) -0.1722(6)
H40B H 0.2157 0.7796 -0.1708
H41B H 0.1567 0.7266 -0.1821
H42B H 0.1677 0.7887 -0.1893
O13B O 0.1778(7) 0.9333(5) 0.0902(4)
O14B O 0.1503(6) 0.8514(5) 0.0644(3)
C31B C 0.1433(10) 0.8804(8) 0.0888(5)
C32B C 0.0957(9) 0.8536(7) 0.1152(5)
C33B C 0.0521(11) 0.7958(8) 0.1079(5)
H43B H 0.0615 0.7822 0.0848
H44B H 0.0496 0.7723 0.1296
H45B H 0.0161 0.7943 0.1043
C34B C 0.0963(13) 0.8846(9) 0.1439(6)
H46B H 0.1272 0.9216 0.1457
C35B C 0.0517(16) 0.8659(12) 0.1740(7)
H47B H 0.0617 0.8965 0.1922
H48B H 0.0157 0.8558 0.1620
H49B H 0.0486 0.8333 0.1874
O15B O 0.1654(6) 0.9262(4) -0.0109(3)
O16B O 0.1996(4) 1.0096(3) 0.0146(3)
C36B C 0.1686(7) 0.9735(5) -0.0097(4)
C37B C 0.1362(7) 0.9860(5) -0.0382(4)
C38B C 0.1065(8) 0.9418(6) -0.0690(4)
H50B H 0.1150 0.9115 -0.0656
H51B H 0.0660 0.9266 -0.0670
H52B H 0.1194 0.9589 -0.0941
C39B C 0.1341(7) 1.0321(5) -0.0341(4)
H53B H 0.1552 1.0559 -0.0136
C40B C 0.1018(9) 1.0519(7) -0.0584(5)
H54B H 0.1080 1.0879 -0.0487
H55B H 0.1149 1.0564 -0.0848
H56B H 0.0618 1.0242 -0.0573
Pb1I Pb -0.26747(2) 0.43727(2) -0.11411(2)
Pb2I Pb -0.21546(2) 0.57334(2) -0.05541(2)
Pb3I Pb -0.19026(2) 0.70545(2) 0.00719(2)
Pb4I Pb -0.05327(2) 0.70825(2) -0.03728(2)
O1I O -0.2647(4) 0.5275(3) -0.1253(3)
O2I O -0.3395(3) 0.4549(3) -0.1489(2)
C1I C -0.3126(5) 0.5059(5) -0.1404(3)
C2I C -0.3368(5) 0.5437(5) -0.1477(3)
C3I C -0.3004(7) 0.6034(5) -0.1367(5)
H1I H -0.2642 0.6093 -0.1276
H2I H -0.3186 0.6129 -0.1163
H3I H -0.2945 0.6275 -0.1588
C4I C -0.3881(5) 0.5218(5) -0.1610(3)
H4I H -0.4068 0.4829 -0.1667
C5I C -0.4206(6) 0.5518(6) -0.1683(4)
H5I H -0.4578 0.5251 -0.1782
H6I H -0.4005 0.5818 -0.1870
H7I H -0.4245 0.5680 -0.1444
O3I O -0.2871(4) 0.4685(3) -0.0541(3)
O4I O -0.3564(3) 0.3873(3) -0.0716(2)
C6I C -0.3348(5) 0.4258(5) -0.0468(3)
C7I C -0.3615(5) 0.4207(5) -0.0099(4)
C8I C -0.4207(6) 0.3701(7) -0.0054(4)
H8I H -0.4321 0.3487 -0.0292
H9I H -0.4470 0.3832 0.0007
H10I H -0.4209 0.3460 0.0152
C9I C -0.3351(7) 0.4570(7) 0.0172(5)
H11I H -0.2977 0.4851 0.0114
C10I C -0.3553(9) 0.4605(10) 0.0557(5)
H12I H -0.3254 0.4925 0.0694
H13I H -0.3656 0.4259 0.0698
H14I H -0.3881 0.4653 0.0534
O5I O -0.1144(3) 0.6045(3) -0.0703(3)
O6I O -0.1769(3) 0.5161(3) -0.0810(2)
C11I C -0.1266(5) 0.5553(5) -0.0801(3)
C12I C -0.0814(5) 0.5419(6) -0.0891(4)
C13I C -0.1002(6) 0.4829(6) -0.0999(4)
H15I H -0.1412 0.4611 -0.0999
H16I H -0.0855 0.4667 -0.0816
H17I H -0.0862 0.4821 -0.1255
C14I C -0.0284(6) 0.5829(7) -0.0864(5)
H18I H -0.0223 0.6189 -0.0795
C15I C 0.0229(7) 0.5777(9) -0.0930(8)
H19I H 0.0566 0.6143 -0.0891
H20I H 0.0224 0.5651 -0.1192
H21I H 0.0229 0.5504 -0.0752
O7I O -0.1951(4) 0.5463(3) 0.0038(2)
O8I O -0.1492(3) 0.6377(3) 0.0030(2)
C16I C -0.1626(5) 0.5918(5) 0.0197(4)
C17I C -0.1381(7) 0.5932(6) 0.0571(4)
C18I C -0.0975(8) 0.6477(7) 0.0737(5)
H22I H -0.0920 0.6778 0.0563
H23I H -0.0616 0.6490 0.0777
H24I H -0.1117 0.6526 0.0981
C19I C -0.1544(9) 0.5446(7) 0.0737(5)
H25I H -0.1822 0.5120 0.0610
C20I C -0.1323(15) 0.5362(11) 0.1115(7)
H26I H -0.1511 0.4962 0.1176
H27I H -0.1398 0.5562 0.1317
H28I H -0.0918 0.5510 0.1095
O9I O -0.2873(4) 0.6872(4) -0.0119(3)
O10I O -0.2726(4) 0.6174(4) -0.0164(4)
C21I C -0.3060(5) 0.6351(5) -0.0171(4)
C22I C -0.3666(5) 0.5973(5) -0.0240(4)
C23I C -0.3823(7) 0.5403(7) -0.0377(7)
H29I H -0.3483 0.5380 -0.0417
H30I H -0.4029 0.5328 -0.0617
H31I H -0.4060 0.5125 -0.0186
C24I C -0.4021(6) 0.6149(6) -0.0156(5)
H32I H -0.3860 0.6524 -0.0068
C25I C -0.4646(6) 0.5826(7) -0.0184(7)
H33I H -0.4798 0.6064 -0.0104
H34I H -0.4793 0.5496 -0.0019
H35I H -0.4756 0.5707 -0.0449
O11I O -0.2194(11) 0.6497(11) 0.0609(5)
O12I O -0.2520(8) 0.7034(7) 0.0724(4)
C26I C -0.2372(12) 0.6724(12) 0.0854(6)
C27I C -0.2506(8) 0.6476(8) 0.1217(5)
C28I C -0.2776(12) 0.6705(12) 0.1461(7)
H36I H -0.2853 0.6960 0.1312
H37I H -0.2527 0.6911 0.1674
H38I H -0.3129 0.6398 0.1561
C29I C -0.2349(9) 0.6126(10) 0.1325(6)
H39I H -0.2212 0.5991 0.1127
C30I C -0.2350(12) 0.5898(11) 0.1722(6)
H40I H -0.2204 0.5639 0.1708
H41I H -0.2734 0.5699 0.1821
H42I H -0.2113 0.6210 0.1893
O13I O -0.0667(5) 0.7555(5) -0.0902(4)
O14I O -0.1486(5) 0.7011(4) -0.0644(3)
C31I C -0.1196(8) 0.7371(6) -0.0888(5)
C32I C -0.1464(7) 0.7579(6) -0.1152(5)
C33I C -0.2042(8) 0.7437(7) -0.1079(5)
H43I H -0.2178 0.7207 -0.0848
H44I H -0.2277 0.7227 -0.1296
H45I H -0.2057 0.7782 -0.1043
C34I C -0.1154(9) 0.7883(9) -0.1439(6)
H46I H -0.0784 0.7944 -0.1457
C35I C -0.1341(12) 0.8142(11) -0.1740(7)
H47I H -0.1035 0.8348 -0.1922
H48I H -0.1442 0.8401 -0.1620
H49I H -0.1667 0.7847 -0.1874
O15I O -0.0738(4) 0.7608(4) 0.0109(3)
O16I O 0.0096(3) 0.8100(3) -0.0146(3)
C36I C -0.0265(5) 0.8049(5) 0.0097(4)
C37I C -0.0140(5) 0.8498(5) 0.0382(4)
C38I C -0.0582(6) 0.8353(6) 0.0690(4)
H50I H -0.0885 0.7965 0.0656
H51I H -0.0734 0.8606 0.0670
H52I H -0.0411 0.8395 0.0941
C39I C 0.0321(5) 0.8980(5) 0.0341(4)
H53I H 0.0559 0.9007 0.0136
C40I C 0.0519(7) 0.9501(6) 0.0584(5)
H54I H 0.0879 0.9799 0.0487
H55I H 0.0564 0.9415 0.0848
H56I H 0.0242 0.9624 0.0573
Pb1J Pb 0.56273(2) 0.29526(3) -0.11411(2)
Pb2J Pb 0.42666(2) 0.21120(3) -0.05541(2)
Pb3J Pb 0.29455(2) 0.10429(3) 0.00719(2)
Pb4J Pb 0.29175(2) 0.23848(3) -0.03728(2)
O1J O 0.4725(3) 0.2078(5) -0.1253(3)
O2J O 0.5451(3) 0.2056(4) -0.1489(2)
C1J C 0.4941(5) 0.1815(7) -0.1404(3)
C2J C 0.4563(5) 0.1195(7) -0.1477(3)
C3J C 0.3966(5) 0.0962(9) -0.1367(5)
H1J H 0.3907 0.1265 -0.1276
H2J H 0.3871 0.0685 -0.1163
H3J H 0.3725 0.0780 -0.1588
C4J C 0.4782(5) 0.0901(7) -0.1610(3)
H4J H 0.5171 0.1103 -0.1667
C5J C 0.4482(6) 0.0276(8) -0.1683(4)
H5J H 0.4749 0.0171 -0.1782
H6J H 0.4182 0.0177 -0.1870
H7J H 0.4320 0.0075 -0.1444
O3J O 0.5315(3) 0.2444(5) -0.0541(3)
O4J O 0.6127(3) 0.2563(4) -0.0716(2)
C6J C 0.5742(5) 0.2394(7) -0.0468(3)
C7J C 0.5793(5) 0.2178(7) -0.0099(4)
C8J C 0.6299(7) 0.2092(9) -0.0054(4)
H8J H 0.6513 0.2192 -0.0292
H9J H 0.6168 0.1698 0.0007
H10J H 0.6540 0.2331 0.0152
C9J C 0.5430(7) 0.2079(10) 0.0172(5)
H11J H 0.5149 0.2172 0.0114
C10J C 0.5395(10) 0.1842(13) 0.0557(5)
H12J H 0.5075 0.1821 0.0694
H13J H 0.5741 0.2085 0.0698
H14J H 0.5347 0.1466 0.0534
O5J O 0.3955(3) 0.2811(4) -0.0703(3)
O6J O 0.4839(3) 0.3070(4) -0.0810(2)
C11J C 0.4447(5) 0.3181(7) -0.0801(3)
C12J C 0.4581(6) 0.3767(8) -0.0891(4)
C13J C 0.5171(6) 0.4169(8) -0.0999(4)
H15J H 0.5389 0.3977 -0.0999
H16J H 0.5333 0.4478 -0.0816
H17J H 0.5179 0.4317 -0.1255
C14J C 0.4171(7) 0.3887(9) -0.0864(5)
H18J H 0.3811 0.3588 -0.0795
C15J C 0.4223(9) 0.4452(11) -0.0930(8)
H19J H 0.3857 0.4423 -0.0891
H20J H 0.4349 0.4573 -0.1192
H21J H 0.4496 0.4725 -0.0752
O7J O 0.4537(3) 0.2586(5) 0.0038(2)
O8J O 0.3623(3) 0.2131(4) 0.0030(2)
C16J C 0.4082(5) 0.2456(7) 0.0197(4)
C17J C 0.4068(6) 0.2687(9) 0.0571(4)
C18J C 0.3523(7) 0.2548(11) 0.0737(5)
H22J H 0.3222 0.2302 0.0563
H23J H 0.3510 0.2894 0.0777
H24J H 0.3474 0.2357 0.0981
C19J C 0.4554(7) 0.3010(11) 0.0737(5)
H25J H 0.4880 0.3058 0.0610
C20J C 0.4638(11) 0.3315(19) 0.1115(7)
H26J H 0.5038 0.3527 0.1176
H27J H 0.4438 0.3040 0.1317
H28J H 0.4490 0.3572 0.1095
O9J O 0.3128(4) 0.0255(6) -0.0119(3)
O10J O 0.3826(4) 0.1100(6) -0.0164(4)
C21J C 0.3649(5) 0.0589(7) -0.0171(4)
C22J C 0.4027(5) 0.0361(7) -0.0240(4)
C23J C 0.4597(7) 0.0774(10) -0.0377(7)
H29J H 0.4620 0.1137 -0.0417
H30J H 0.4672 0.0643 -0.0617
H31J H 0.4875 0.0815 -0.0186
C24J C 0.3851(6) -0.0170(8) -0.0156(5)
H32J H 0.3476 -0.0384 -0.0068
C25J C 0.4174(7) -0.0472(9) -0.0184(7)
H33J H 0.3936 -0.0862 -0.0104
H34J H 0.4504 -0.0289 -0.0019
H35J H 0.4293 -0.0463 -0.0449
O11J O 0.3503(11) 0.1309(16) 0.0609(5)
O12J O 0.2966(7) 0.0446(11) 0.0724(4)
C26J C 0.3276(12) 0.0904(17) 0.0854(6)
C27J C 0.3524(8) 0.1018(11) 0.1217(5)
C28J C 0.3295(12) 0.0519(17) 0.1461(7)
H36J H 0.3040 0.0187 0.1312
H37J H 0.3089 0.0562 0.1674
H38J H 0.3602 0.0473 0.1561
C29J C 0.3874(10) 0.1525(13) 0.1325(6)
H39J H 0.4009 0.1797 0.1127
C30J C 0.4102(11) 0.1752(16) 0.1722(6)
H40J H 0.4361 0.2157 0.1708
H41J H 0.4301 0.1567 0.1821
H42J H 0.3790 0.1677 0.1893
O13J O 0.2445(5) 0.1778(7) -0.0902(4)
O14J O 0.2989(4) 0.1503(6) -0.0644(3)
C31J C 0.2629(6) 0.1433(10) -0.0888(5)
C32J C 0.2421(6) 0.0957(9) -0.1152(5)
C33J C 0.2563(7) 0.0521(11) -0.1079(5)
H43J H 0.2793 0.0615 -0.0848
H44J H 0.2773 0.0496 -0.1296
H45J H 0.2218 0.0161 -0.1043
C34J C 0.2117(9) 0.0963(13) -0.1439(6)
H46J H 0.2056 0.1272 -0.1457
C35J C 0.1858(11) 0.0517(16) -0.1740(7)
H47J H 0.1652 0.0617 -0.1922
H48J H 0.1599 0.0157 -0.1620
H49J H 0.2153 0.0486 -0.1874
O15J O 0.2392(4) 0.1654(6) 0.0109(3)
O16J O 0.1900(3) 0.1996(4) -0.0146(3)
C36J C 0.1951(5) 0.1686(7) 0.0097(4)
C37J C 0.1502(5) 0.1362(7) 0.0382(4)
C38J C 0.1647(6) 0.1065(8) 0.0690(4)
H50J H 0.2035 0.1150 0.0656
H51J H 0.1394 0.0660 0.0670
H52J H 0.1605 0.1194 0.0941
C39J C 0.1020(5) 0.1341(7) 0.0341(4)
H53J H 0.0993 0.1552 0.0136
C40J C 0.0499(6) 0.1018(9) 0.0584(5)
H54J H 0.0201 0.1080 0.0487
H55J H 0.0585 0.1149 0.0848
H56J H 0.0376 0.0618 0.0573
Pb1K Pb -0.29526(3) 0.26747(2) -0.11411(2)
Pb2K Pb -0.21120(3) 0.21546(2) -0.05541(2)
Pb3K Pb -0.10429(3) 0.19026(2) 0.00719(2)
Pb4K Pb -0.23848(3) 0.05327(2) -0.03728(2)
O1K O -0.2078(5) 0.2647(4) -0.1253(3)
O2K O -0.2056(4) 0.3395(3) -0.1489(2)
C1K C -0.1815(7) 0.3126(5) -0.1404(3)
C2K C -0.1195(7) 0.3368(5) -0.1477(3)
C3K C -0.0962(9) 0.3004(7) -0.1367(5)
H1K H -0.1265 0.2642 -0.1276
H2K H -0.0685 0.3186 -0.1163
H3K H -0.0780 0.2945 -0.1588
C4K C -0.0901(7) 0.3881(5) -0.1610(3)
H4K H -0.1103 0.4068 -0.1667
C5K C -0.0276(8) 0.4206(6) -0.1683(4)
H5K H -0.0171 0.4578 -0.1782
H6K H -0.0177 0.4005 -0.1870
H7K H -0.0075 0.4245 -0.1444
O3K O -0.2444(5) 0.2871(4) -0.0541(3)
O4K O -0.2563(4) 0.3564(3) -0.0716(2)
C6K C -0.2394(7) 0.3348(5) -0.0468(3)
C7K C -0.2178(7) 0.3615(5) -0.0099(4)
C8K C -0.2092(9) 0.4207(6) -0.0054(4)
H8K H -0.2192 0.4321 -0.0292
H9K H -0.1698 0.4470 0.0007
H10K H -0.2331 0.4209 0.0152
C9K C -0.2079(10) 0.3351(7) 0.0172(5)
H11K H -0.2172 0.2977 0.0114
C10K C -0.1842(13) 0.3553(9) 0.0557(5)
H12K H -0.1821 0.3254 0.0694
H13K H -0.2085 0.3656 0.0698
H14K H -0.1466 0.3881 0.0534
O5K O -0.2811(4) 0.1144(3) -0.0703(3)
O6K O -0.3070(4) 0.1769(3) -0.0810(2)
C11K C -0.3181(7) 0.1266(5) -0.0801(3)
C12K C -0.3767(8) 0.0814(5) -0.0891(4)
C13K C -0.4169(8) 0.1002(6) -0.0999(4)
H15K H -0.3977 0.1412 -0.0999
H16K H -0.4478 0.0855 -0.0816
H17K H -0.4317 0.0862 -0.1255
C14K C -0.3887(9) 0.0284(6) -0.0864(5)
H18K H -0.3588 0.0223 -0.0795
C15K C -0.4452(11) -0.0229(7) -0.0930(8)
H19K H -0.4423 -0.0566 -0.0891
H20K H -0.4573 -0.0224 -0.1192
H21K H -0.4725 -0.0229 -0.0752
O7K O -0.2586(5) 0.1951(4) 0.0038(2)
O8K O -0.2131(4) 0.1492(3) 0.0030(2)
C16K C -0.2456(7) 0.1626(5) 0.0197(4)
C17K C -0.2687(9) 0.1381(7) 0.0571(4)
C18K C -0.2548(11) 0.0975(8) 0.0737(5)
H22K H -0.2302 0.0920 0.0563
H23K H -0.2894 0.0616 0.0777
H24K H -0.2357 0.1117 0.0981
C19K C -0.3010(11) 0.1544(9) 0.0737(5)
H25K H -0.3058 0.1822 0.0610
C20K C -0.3315(19) 0.1323(15) 0.1115(7)
H26K H -0.3527 0.1511 0.1176
H27K H -0.3040 0.1398 0.1317
H28K H -0.3572 0.0918 0.1095
O9K O -0.0255(6) 0.2873(4) -0.0119(3)
O10K O -0.1100(6) 0.2726(4) -0.0164(4)
C21K C -0.0589(7) 0.3060(5) -0.0171(4)
C22K C -0.0361(7) 0.3666(5) -0.0240(4)
C23K C -0.0774(10) 0.3823(7) -0.0377(7)
H29K H -0.1137 0.3483 -0.0417
H30K H -0.0643 0.4029 -0.0617
H31K H -0.0815 0.4060 -0.0186
C24K C 0.0170(8) 0.4021(6) -0.0156(5)
H32K H 0.0384 0.3860 -0.0068
C25K C 0.0472(9) 0.4646(6) -0.0184(7)
H33K H 0.0862 0.4798 -0.0104
H34K H 0.0289 0.4793 -0.0019
H35K H 0.0463 0.4756 -0.0449
O11K O -0.1309(16) 0.2194(11) 0.0609(5)
O12K O -0.0446(11) 0.2520(8) 0.0724(4)
C26K C -0.0904(17) 0.2372(12) 0.0854(6)
C27K C -0.1018(11) 0.2506(8) 0.1217(5)
C28K C -0.0519(17) 0.2776(12) 0.1461(7)
H36K H -0.0187 0.2853 0.1312
H37K H -0.0562 0.2527 0.1674
H38K H -0.0473 0.3129 0.1561
C29K C -0.1525(13) 0.2349(9) 0.1325(6)
H39K H -0.1797 0.2212 0.1127
C30K C -0.1752(16) 0.2350(12) 0.1722(6)
H40K H -0.2157 0.2204 0.1708
H41K H -0.1567 0.2734 0.1821
H42K H -0.1677 0.2113 0.1893
O13K O -0.1778(7) 0.0667(5) -0.0902(4)
O14K O -0.1503(6) 0.1486(5) -0.0644(3)
C31K C -0.1433(10) 0.1196(8) -0.0888(5)
C32K C -0.0957(9) 0.1464(7) -0.1152(5)
C33K C -0.0521(11) 0.2042(8) -0.1079(5)
H43K H -0.0615 0.2178 -0.0848
H44K H -0.0496 0.2277 -0.1296
H45K H -0.0161 0.2057 -0.1043
C34K C -0.0963(13) 0.1154(9) -0.1439(6)
H46K H -0.1272 0.0784 -0.1457
C35K C -0.0517(16) 0.1341(12) -0.1740(7)
H47K H -0.0617 0.1035 -0.1922
H48K H -0.0157 0.1442 -0.1620
H49K H -0.0486 0.1667 -0.1874
O15K O -0.1654(6) 0.0738(4) 0.0109(3)
O16K O -0.1996(4) -0.0096(3) -0.0146(3)
C36K C -0.1686(7) 0.0265(5) 0.0097(4)
C37K C -0.1362(7) 0.0140(5) 0.0382(4)
C38K C -0.1065(8) 0.0582(6) 0.0690(4)
H50K H -0.1150 0.0885 0.0656
H51K H -0.0660 0.0734 0.0670
H52K H -0.1194 0.0411 0.0941
C39K C -0.1341(7) -0.0321(5) 0.0341(4)
H53K H -0.1552 -0.0559 0.0136
C40K C -0.1018(9) -0.0519(7) 0.0584(5)
H54K H -0.1080 -0.0879 0.0487
H55K H -0.1149 -0.0564 0.0848
H56K H -0.0618 -0.0242 0.0573
Pb1F Pb 0.60080(2) 0.22940(2) -0.21922(2)
Pb1G Pb -0.22940(2) 0.37141(3) -0.21922(2)
Pb1H Pb -0.37141(3) 0.39920(2) -0.21922(2)
Pb1J_2 Pb -0.43727(2) 0.29526(3) -0.11411(2)
Pb1K_2 Pb 0.70474(3) 0.26747(2) -0.11411(2)
Pb1O Pb 0.39920(2) 0.77060(2) 0.21922(2)
Pb1P Pb 0.22940(2) 0.62859(3) 0.21922(2)
Pb1Q Pb 0.37141(3) 0.60080(2) 0.21922(2)
Pb3A_2 Pb -0.29455(2) -0.10429(3) -0.00719(2)
Pb3I_2 Pb 0.80974(2) 0.70545(2) 0.00719(2)
Pb3J_2 Pb 0.29455(2) 1.10429(3) 0.00719(2)
Pb4A_2 Pb -0.29175(2) 0.76152(3) 0.03728(2)
Pb4B_2 Pb 0.23848(3) -0.05327(2) 0.03728(2)
Pb4K_2 Pb 0.76152(3) 1.05327(2) -0.03728(2)
O2F O -0.3272(3) 0.2118(3) -0.1844(2)
O2G O -0.2118(3) 0.4611(4) -0.1844(2)
O2H O 0.5389(4) 0.3272(3) -0.1844(2)
O2O O 0.3272(3) 0.7882(3) 0.1844(2)
O2P O 0.2118(3) 0.5389(4) 0.1844(2)
O2Q O 0.4611(4) 0.6728(3) 0.1844(2)
O4I_2 O 0.6436(3) 0.3873(3) -0.0716(2)
O4J_2 O -0.3873(3) 0.2563(4) -0.0716(2)
O9A_2 O -0.3128(4) -0.0255(6) 0.0119(3)
O9I_2 O 0.7127(4) 0.6872(4) -0.0119(3)
O9J_2 O 0.3128(4) 1.0255(6) -0.0119(3)
O12A_2 O -0.2966(7) -0.0446(11) -0.0724(4)
O12I_2 O 0.7480(8) 0.7034(7) 0.0724(4)
O12J_2 O 0.2966(7) 1.0446(11) 0.0724(4)
O16A_2 O -0.1900(3) 0.8004(4) 0.0146(3)
O16B_2 O 0.1996(4) 0.0096(3) 0.0146(3)
O16K_2 O 0.8004(4) 0.9904(3) -0.0146(3)
Cl1F Cl -0.3334 0.3334 -0.1666
Cl1F_2 Cl 0.6666 0.3334 -0.1666
loop_
_geom_bond_atom_site_label_1
_geom_bond_atom_site_label_2
_geom_bond_site_symmetry_1
_geom_bond_site_symmetry_2
Pb1 O1 1_555 1_555
Pb2 O1 1_555 1_555
Pb3 O8 1_555 1_555
Pb4 O5 1_555 1_555
O1 C1 1_555 1_555
O2 Pb1 1_555 1_555
C1 O2 1_555 1_555
C2 C1 1_555 1_555
C3 C2 1_555 1_555
H1 C3 1_555 1_555
H2 C3 1_555 1_555
H3 C3 1_555 1_555
C4 C2 1_555 1_555
H4 C4 1_555 1_555
C5 C4 1_555 1_555
H5 C5 1_555 1_555
H6 C5 1_555 1_555
H7 C5 1_555 1_555
O3 Pb1 1_555 1_555
O4 Pb1 1_555 1_555
C6 O3 1_555 1_555
C7 C6 1_555 1_555
C8 C7 1_555 1_555
H8 C8 1_555 1_555
H9 C8 1_555 1_555
H10 C8 1_555 1_555
C9 C7 1_555 1_555
H11 C9 1_555 1_555
C10 C9 1_555 1_555
H12 C10 1_555 1_555
H13 C10 1_555 1_555
H14 C10 1_555 1_555
O5 Pb2 1_555 1_555
O6 Pb1 1_555 1_555
C11 O5 1_555 1_555
C12 C11 1_555 1_555
C13 C12 1_555 1_555
H15 C13 1_555 1_555
H16 C13 1_555 1_555
H17 C13 1_555 1_555
C14 C12 1_555 1_555
H18 C14 1_555 1_555
C15 C14 1_555 1_555
H19 C15 1_555 1_555
H20 C15 1_555 1_555
H21 C15 1_555 1_555
O7 Pb2 1_555 1_555
O8 Pb2 1_555 1_555
C16 O7 1_555 1_555
C17 C16 1_555 1_555
C18 C17 1_555 1_555
H22 C18 1_555 1_555
H23 C18 1_555 1_555
H24 C18 1_555 1_555
C19 C17 1_555 1_555
H25 C19 1_555 1_555
C20 C19 1_555 1_555
H26 C20 1_555 1_555
H27 C20 1_555 1_555
H28 C20 1_555 1_555
O9 Pb3 1_555 1_555
O10 Pb2 1_555 1_555
C21 O9 1_555 1_555
C22 C21 1_555 1_555
C23 C22 1_555 1_555
H29 C23 1_555 1_555
H30 C23 1_555 1_555
H31 C23 1_555 1_555
C24 C22 1_555 1_555
H32 C24 1_555 1_555
C25 C24 1_555 1_555
H33 C25 1_555 1_555
H34 C25 1_555 1_555
H35 C25 1_555 1_555
O11 Pb3 1_555 1_555
O12 Pb3 1_555 1_555
C26 O11 1_555 1_555
C27 C26 1_555 1_555
C28 C27 1_555 1_555
H36 C28 1_555 1_555
H37 C28 1_555 1_555
H38 C28 1_555 1_555
C29 C27 1_555 1_555
H39 C29 1_555 1_555
C30 C29 1_555 1_555
H40 C30 1_555 1_555
H41 C30 1_555 1_555
H42 C30 1_555 1_555
O13 Pb4 1_555 1_555
O14 Pb3 1_555 1_555
C31 O13 1_555 1_555
C32 C31 1_555 1_555
C33 C32 1_555 1_555
H43 C33 1_555 1_555
H44 C33 1_555 1_555
H45 C33 1_555 1_555
C34 C32 1_555 1_555
H46 C34 1_555 1_555
C35 C34 1_555 1_555
H47 C35 1_555 1_555
H48 C35 1_555 1_555
H49 C35 1_555 1_555
O15 Pb3 1_555 1_555
O16 Pb4 1_555 1_555
C36 O15 1_555 1_555
C37 C36 1_555 1_555
C38 C37 1_555 1_555
H50 C38 1_555 1_555
H51 C38 1_555 1_555
H52 C38 1_555 1_555
C39 C37 1_555 1_555
H53 C39 1_555 1_555
C40 C39 1_555 1_555
H54 C40 1_555 1_555
H55 C40 1_555 1_555
H56 C40 1_555 1_555
Cl1 Pb1 1_555 1_555
Pb1A O4 1_555 1_555
Pb2A O1A 1_555 1_555
Pb3A O8A 1_555 1_555
Pb4A O5A 1_555 1_555
O1A Pb1A 1_555 1_555
O2A Pb1A 1_555 1_555
C1A O1A 1_555 1_555
C2A C1A 1_555 1_555
C3A C2A 1_555 1_555
H1A C3A 1_555 1_555
H2A C3A 1_555 1_555
H3A C3A 1_555 1_555
C4A C2A 1_555 1_555
H4A C4A 1_555 1_555
C5A C4A 1_555 1_555
H5A C5A 1_555 1_555
H6A C5A 1_555 1_555
H7A C5A 1_555 1_555
O3A Pb1A 1_555 1_555
O4A Pb1A 1_555 1_555
C6A O3A 1_555 1_555
C7A C6A 1_555 1_555
C8A C7A 1_555 1_555
H8A C8A 1_555 1_555
H9A C8A 1_555 1_555
H10A C8A 1_555 1_555
C9A C7A 1_555 1_555
H11A C9A 1_555 1_555
C10A C9A 1_555 1_555
H12A C10A 1_555 1_555
H13A C10A 1_555 1_555
H14A C10A 1_555 1_555
O5A Pb2A 1_555 1_555
O6A Pb1A 1_555 1_555
C11A O5A 1_555 1_555
C12A C11A 1_555 1_555
C13A C12A 1_555 1_555
H15A C13A 1_555 1_555
H16A C13A 1_555 1_555
H17A C13A 1_555 1_555
C14A C12A 1_555 1_555
H18A C14A 1_555 1_555
C15A C14A 1_555 1_555
H19A C15A 1_555 1_555
H20A C15A 1_555 1_555
H21A C15A 1_555 1_555
O7A Pb2A 1_555 1_555
O8A Pb2A 1_555 1_555
C16A O7A 1_555 1_555
C17A C16A 1_555 1_555
C18A C17A 1_555 1_555
H22A C18A 1_555 1_555
H23A C18A 1_555 1_555
H24A C18A 1_555 1_555
C19A C17A 1_555 1_555
H25A C19A 1_555 1_555
C20A C19A 1_555 1_555
H26A C20A 1_555 1_555
H27A C20A 1_555 1_555
H28A C20A 1_555 1_555
O9A Pb3A 1_555 1_555
O10A Pb2A 1_555 1_555
C21A O9A 1_555 1_555
C22A C21A 1_555 1_555
C23A C22A 1_555 1_555
H29A C23A 1_555 1_555
H30A C23A 1_555 1_555
H31A C23A 1_555 1_555
C24A C22A 1_555 1_555
H32A C24A 1_555 1_555
C25A C24A 1_555 1_555
H33A C25A 1_555 1_555
H34A C25A 1_555 1_555
H35A C25A 1_555 1_555
O11A Pb3A 1_555 1_555
O12A Pb3A 1_555 1_555
C26A O11A 1_555 1_555
C27A C26A 1_555 1_555
C28A C27A 1_555 1_555
H36A C28A 1_555 1_555
H37A C28A 1_555 1_555
H38A C28A 1_555 1_555
C29A C27A 1_555 1_555
H39A C29A 1_555 1_555
C30A C29A 1_555 1_555
H40A C30A 1_555 1_555
H41A C30A 1_555 1_555
H42A C30A 1_555 1_555
O13A Pb4A 1_555 1_555
O14A Pb3A 1_555 1_555
C31A O13A 1_555 1_555
C32A C31A 1_555 1_555
C33A C32A 1_555 1_555
H43A C33A 1_555 1_555
H44A C33A 1_555 1_555
H45A C33A 1_555 1_555
C34A C32A 1_555 1_555
H46A C34A 1_555 1_555
C35A C34A 1_555 1_555
H47A C35A 1_555 1_555
H48A C35A 1_555 1_555
H49A C35A 1_555 1_555
O15A Pb3A 1_555 1_555
O16A Pb4A 1_555 1_555
C36A O15A 1_555 1_555
C37A C36A 1_555 1_555
C38A C37A 1_555 1_555
H50A C38A 1_555 1_555
H51A C38A 1_555 1_555
H52A C38A 1_555 1_555
C39A C37A 1_555 1_555
H53A C39A 1_555 1_555
C40A C39A 1_555 1_555
H54A C40A 1_555 1_555
H55A C40A 1_555 1_555
H56A C40A 1_555 1_555
Pb1B Cl1 1_555 1_555
Pb2B O1B 1_555 1_555
Pb3B O8B 1_555 1_555
Pb4B O5B 1_555 1_555
O1B Pb1B 1_555 1_555
O2B Pb1B 1_555 1_555
C1B O1B 1_555 1_555
C2B C1B 1_555 1_555
C3B C2B 1_555 1_555
H1B C3B 1_555 1_555
H2B C3B 1_555 1_555
H3B C3B 1_555 1_555
C4B C2B 1_555 1_555
H4B C4B 1_555 1_555
C5B C4B 1_555 1_555
H5B C5B 1_555 1_555
H6B C5B 1_555 1_555
H7B C5B 1_555 1_555
O3B Pb1B 1_555 1_555
O4B Pb1 1_555 1_555
C6B O3B 1_555 1_555
C7B C6B 1_555 1_555
C8B C7B 1_555 1_555
H8B C8B 1_555 1_555
H9B C8B 1_555 1_555
H10B C8B 1_555 1_555
C9B C7B 1_555 1_555
H11B C9B 1_555 1_555
C10B C9B 1_555 1_555
H12B C10B 1_555 1_555
H13B C10B 1_555 1_555
H14B C10B 1_555 1_555
O5B Pb2B 1_555 1_555
O6B Pb1B 1_555 1_555
C11B O5B 1_555 1_555
C12B C11B 1_555 1_555
C13B C12B 1_555 1_555
H15B C13B 1_555 1_555
H16B C13B 1_555 1_555
H17B C13B 1_555 1_555
C14B C12B 1_555 1_555
H18B C14B 1_555 1_555
C15B C14B 1_555 1_555
H19B C15B 1_555 1_555
H20B C15B 1_555 1_555
H21B C15B 1_555 1_555
O7B Pb2B 1_555 1_555
O8B Pb2B 1_555 1_555
C16B O7B 1_555 1_555
C17B C16B 1_555 1_555
C18B C17B 1_555 1_555
H22B C18B 1_555 1_555
H23B C18B 1_555 1_555
H24B C18B 1_555 1_555
C19B C17B 1_555 1_555
H25B C19B 1_555 1_555
C20B C19B 1_555 1_555
H26B C20B 1_555 1_555
H27B C20B 1_555 1_555
H28B C20B 1_555 1_555
O9B Pb3B 1_555 1_555
O10B Pb2B 1_555 1_555
C21B O9B 1_555 1_555
C22B C21B 1_555 1_555
C23B C22B 1_555 1_555
H29B C23B 1_555 1_555
H30B C23B 1_555 1_555
H31B C23B 1_555 1_555
C24B C22B 1_555 1_555
H32B C24B 1_555 1_555
C25B C24B 1_555 1_555
H33B C25B 1_555 1_555
H34B C25B 1_555 1_555
H35B C25B 1_555 1_555
O11B Pb3B 1_555 1_555
O12B Pb3B 1_555 1_555
C26B O11B 1_555 1_555
C27B C26B 1_555 1_555
C28B C27B 1_555 1_555
H36B C28B 1_555 1_555
H37B C28B 1_555 1_555
H38B C28B 1_555 1_555
C29B C27B 1_555 1_555
H39B C29B 1_555 1_555
C30B C29B 1_555 1_555
H40B C30B 1_555 1_555
H41B C30B 1_555 1_555
H42B C30B 1_555 1_555
O13B Pb4B 1_555 1_555
O14B Pb3B 1_555 1_555
C31B O13B 1_555 1_555
C32B C31B 1_555 1_555
C33B C32B 1_555 1_555
H43B C33B 1_555 1_555
H44B C33B 1_555 1_555
H45B C33B 1_555 1_555
C34B C32B 1_555 1_555
H46B C34B 1_555 1_555
C35B C34B 1_555 1_555
H47B C35B 1_555 1_555
H48B C35B 1_555 1_555
H49B C35B 1_555 1_555
O15B Pb3B 1_555 1_555
O16B Pb4B 1_555 1_555
C36B O15B 1_555 1_555
C37B C36B 1_555 1_555
C38B C37B 1_555 1_555
H50B C38B 1_555 1_555
H51B C38B 1_555 1_555
H52B C38B 1_555 1_555
C39B C37B 1_555 1_555
H53B C39B 1_555 1_555
C40B C39B 1_555 1_555
H54B C40B 1_555 1_555
H55B C40B 1_555 1_555
H56B C40B 1_555 1_555
Pb1I O1I 1_555 1_555
Pb2I O1I 1_555 1_555
Pb3I O8I 1_555 1_555
Pb4I O9B 1_555 1_555
O1I C1I 1_555 1_555
O2I Pb1I 1_555 1_555
C1I O2I 1_555 1_555
C2I C1I 1_555 1_555
C3I C2I 1_555 1_555
H1I C3I 1_555 1_555
H2I C3I 1_555 1_555
H3I C3I 1_555 1_555
C4I C2I 1_555 1_555
H4I C4I 1_555 1_555
C5I C4I 1_555 1_555
H5I C5I 1_555 1_555
H6I C5I 1_555 1_555
H7I C5I 1_555 1_555
O3I Pb1I 1_555 1_555
O4I Pb1I 1_555 1_555
C6I O3I 1_555 1_555
C7I C6I 1_555 1_555
C8I C7I 1_555 1_555
H8I C8I 1_555 1_555
H9I C8I 1_555 1_555
H10I C8I 1_555 1_555
C9I C7I 1_555 1_555
H11I C9I 1_555 1_555
C10I C9I 1_555 1_555
H12I C10I 1_555 1_555
H13I C10I 1_555 1_555
H14I C10I 1_555 1_555
O5I Pb2I 1_555 1_555
O6I Pb1I 1_555 1_555
C11I O5I 1_555 1_555
C12I C11I 1_555 1_555
C13I C12I 1_555 1_555
H15I C13I 1_555 1_555
H16I C13I 1_555 1_555
H17I C13I 1_555 1_555
C14I C12I 1_555 1_555
H18I C14I 1_555 1_555
C15I C14I 1_555 1_555
H19I C15I 1_555 1_555
H20I C15I 1_555 1_555
H21I C15I 1_555 1_555
O7I Pb2I 1_555 1_555
O8I Pb2I 1_555 1_555
C16I O7I 1_555 1_555
C17I C16I 1_555 1_555
C18I C17I 1_555 1_555
H22I C18I 1_555 1_555
H23I C18I 1_555 1_555
H24I C18I 1_555 1_555
C19I C17I 1_555 1_555
H25I C19I 1_555 1_555
C20I C19I 1_555 1_555
H26I C20I 1_555 1_555
H27I C20I 1_555 1_555
H28I C20I 1_555 1_555
O9I Pb3I 1_555 1_555
O10I Pb2I 1_555 1_555
C21I O9I 1_555 1_555
C22I C21I 1_555 1_555
C23I C22I 1_555 1_555
H29I C23I 1_555 1_555
H30I C23I 1_555 1_555
H31I C23I 1_555 1_555
C24I C22I 1_555 1_555
H32I C24I 1_555 1_555
C25I C24I 1_555 1_555
H33I C25I 1_555 1_555
H34I C25I 1_555 1_555
H35I C25I 1_555 1_555
O11I Pb3I 1_555 1_555
O12I Pb3I 1_555 1_555
C26I O11I 1_555 1_555
C27I C26I 1_555 1_555
C28I C27I 1_555 1_555
H36I C28I 1_555 1_555
H37I C28I 1_555 1_555
H38I C28I 1_555 1_555
C29I C27I 1_555 1_555
H39I C29I 1_555 1_555
C30I C29I 1_555 1_555
H40I C30I 1_555 1_555
H41I C30I 1_555 1_555
H42I C30I 1_555 1_555
O13I Pb4I 1_555 1_555
O14I Pb3I 1_555 1_555
C31I O13I 1_555 1_555
C32I C31I 1_555 1_555
C33I C32I 1_555 1_555
H43I C33I 1_555 1_555
H44I C33I 1_555 1_555
H45I C33I 1_555 1_555
C34I C32I 1_555 1_555
H46I C34I 1_555 1_555
C35I C34I 1_555 1_555
H47I C35I 1_555 1_555
H48I C35I 1_555 1_555
H49I C35I 1_555 1_555
O15I Pb3I 1_555 1_555
O16I Pb3B 1_555 1_555
C36I O15I 1_555 1_555
C37I C36I 1_555 1_555
C38I C37I 1_555 1_555
H50I C38I 1_555 1_555
H51I C38I 1_555 1_555
H52I C38I 1_555 1_555
C39I C37I 1_555 1_555
H53I C39I 1_555 1_555
C40I C39I 1_555 1_555
H54I C40I 1_555 1_555
H55I C40I 1_555 1_555
H56I C40I 1_555 1_555
Pb1J O1J 1_555 1_555
Pb2J O1J 1_555 1_555
Pb3J O8J 1_555 1_555
Pb4J O9 1_555 1_555
O1J C1J 1_555 1_555
O2J Pb1J 1_555 1_555
C1J O2J 1_555 1_555
C2J C1J 1_555 1_555
C3J C2J 1_555 1_555
H1J C3J 1_555 1_555
H2J C3J 1_555 1_555
H3J C3J 1_555 1_555
C4J C2J 1_555 1_555
H4J C4J 1_555 1_555
C5J C4J 1_555 1_555
H5J C5J 1_555 1_555
H6J C5J 1_555 1_555
H7J C5J 1_555 1_555
O3J Pb1J 1_555 1_555
O4J Pb1J 1_555 1_555
C6J O3J 1_555 1_555
C7J C6J 1_555 1_555
C8J C7J 1_555 1_555
H8J C8J 1_555 1_555
H9J C8J 1_555 1_555
H10J C8J 1_555 1_555
C9J C7J 1_555 1_555
H11J C9J 1_555 1_555
C10J C9J 1_555 1_555
H12J C10J 1_555 1_555
H13J C10J 1_555 1_555
H14J C10J 1_555 1_555
O5J Pb2J 1_555 1_555
O6J Pb1J 1_555 1_555
C11J O5J 1_555 1_555
C12J C11J 1_555 1_555
C13J C12J 1_555 1_555
H15J C13J 1_555 1_555
H16J C13J 1_555 1_555
H17J C13J 1_555 1_555
C14J C12J 1_555 1_555
H18J C14J 1_555 1_555
C15J C14J 1_555 1_555
H19J C15J 1_555 1_555
H20J C15J 1_555 1_555
H21J C15J 1_555 1_555
O7J Pb2J 1_555 1_555
O8J Pb2J 1_555 1_555
C16J O7J 1_555 1_555
C17J C16J 1_555 1_555
C18J C17J 1_555 1_555
H22J C18J 1_555 1_555
H23J C18J 1_555 1_555
H24J C18J 1_555 1_555
C19J C17J 1_555 1_555
H25J C19J 1_555 1_555
C20J C19J 1_555 1_555
H26J C20J 1_555 1_555
H27J C20J 1_555 1_555
H28J C20J 1_555 1_555
O9J Pb3J 1_555 1_555
O10J Pb2J 1_555 1_555
C21J O9J 1_555 1_555
C22J C21J 1_555 1_555
C23J C22J 1_555 1_555
H29J C23J 1_555 1_555
H30J C23J 1_555 1_555
H31J C23J 1_555 1_555
C24J C22J 1_555 1_555
H32J C24J 1_555 1_555
C25J C24J 1_555 1_555
H33J C25J 1_555 1_555
H34J C25J 1_555 1_555
H35J C25J 1_555 1_555
O11J Pb3J 1_555 1_555
O12J Pb3J 1_555 1_555
C26J O11J 1_555 1_555
C27J C26J 1_555 1_555
C28J C27J 1_555 1_555
H36J C28J 1_555 1_555
H37J C28J 1_555 1_555
H38J C28J 1_555 1_555
C29J C27J 1_555 1_555
H39J C29J 1_555 1_555
C30J C29J 1_555 1_555
H40J C30J 1_555 1_555
H41J C30J 1_555 1_555
H42J C30J 1_555 1_555
O13J Pb4J 1_555 1_555
O14J Pb3J 1_555 1_555
C31J O13J 1_555 1_555
C32J C31J 1_555 1_555
C33J C32J 1_555 1_555
H43J C33J 1_555 1_555
H44J C33J 1_555 1_555
H45J C33J 1_555 1_555
C34J C32J 1_555 1_555
H46J C34J 1_555 1_555
C35J C34J 1_555 1_555
H47J C35J 1_555 1_555
H48J C35J 1_555 1_555
H49J C35J 1_555 1_555
O15J Pb3J 1_555 1_555
O16J Pb3 1_555 1_555
C36J O15J 1_555 1_555
C37J C36J 1_555 1_555
C38J C37J 1_555 1_555
H50J C38J 1_555 1_555
H51J C38J 1_555 1_555
H52J C38J 1_555 1_555
C39J C37J 1_555 1_555
H53J C39J 1_555 1_555
C40J C39J 1_555 1_555
H54J C40J 1_555 1_555
H55J C40J 1_555 1_555
H56J C40J 1_555 1_555
Pb1K O1K 1_555 1_555
Pb2K O1K 1_555 1_555
Pb3K O16 1_555 1_555
Pb4K O5K 1_555 1_555
O1K C1K 1_555 1_555
O2K Pb1K 1_555 1_555
C1K O2K 1_555 1_555
C2K C1K 1_555 1_555
C3K C2K 1_555 1_555
H1K C3K 1_555 1_555
H2K C3K 1_555 1_555
H3K C3K 1_555 1_555
C4K C2K 1_555 1_555
H4K C4K 1_555 1_555
C5K C4K 1_555 1_555
H5K C5K 1_555 1_555
H6K C5K 1_555 1_555
H7K C5K 1_555 1_555
O3K Pb1K 1_555 1_555
O4K Pb1I 1_555 1_555
C6K O3K 1_555 1_555
C7K C6K 1_555 1_555
C8K C7K 1_555 1_555
H8K C8K 1_555 1_555
H9K C8K 1_555 1_555
H10K C8K 1_555 1_555
C9K C7K 1_555 1_555
H11K C9K 1_555 1_555
C10K C9K 1_555 1_555
H12K C10K 1_555 1_555
H13K C10K 1_555 1_555
H14K C10K 1_555 1_555
O5K Pb2K 1_555 1_555
O6K Pb1K 1_555 1_555
C11K O5K 1_555 1_555
C12K C11K 1_555 1_555
C13K C12K 1_555 1_555
H15K C13K 1_555 1_555
H16K C13K 1_555 1_555
H17K C13K 1_555 1_555
C14K C12K 1_555 1_555
H18K C14K 1_555 1_555
C15K C14K 1_555 1_555
H19K C15K 1_555 1_555
H20K C15K 1_555 1_555
H21K C15K 1_555 1_555
O7K Pb2K 1_555 1_555
O8K Pb2K 1_555 1_555
C16K O7K 1_555 1_555
C17K C16K 1_555 1_555
C18K C17K 1_555 1_555
H22K C18K 1_555 1_555
H23K C18K 1_555 1_555
H24K C18K 1_555 1_555
C19K C17K 1_555 1_555
H25K C19K 1_555 1_555
C20K C19K 1_555 1_555
H26K C20K 1_555 1_555
H27K C20K 1_555 1_555
H28K C20K 1_555 1_555
O9K Pb4 1_555 1_555
O10K Pb2K 1_555 1_555
C21K O9K 1_555 1_555
C22K C21K 1_555 1_555
C23K C22K 1_555 1_555
H29K C23K 1_555 1_555
H30K C23K 1_555 1_555
H31K C23K 1_555 1_555
C24K C22K 1_555 1_555
H32K C24K 1_555 1_555
C25K C24K 1_555 1_555
H33K C25K 1_555 1_555
H34K C25K 1_555 1_555
H35K C25K 1_555 1_555
O11K Pb3K 1_555 1_555
O12K Pb4 1_555 1_555
C26K O11K 1_555 1_555
C27K C26K 1_555 1_555
C28K C27K 1_555 1_555
H36K C28K 1_555 1_555
H37K C28K 1_555 1_555
H38K C28K 1_555 1_555
C29K C27K 1_555 1_555
H39K C29K 1_555 1_555
C30K C29K 1_555 1_555
H40K C30K 1_555 1_555
H41K C30K 1_555 1_555
H42K C30K 1_555 1_555
O13K Pb4K 1_555 1_555
O14K Pb3K 1_555 1_555
C31K O13K 1_555 1_555
C32K C31K 1_555 1_555
C33K C32K 1_555 1_555
H43K C33K 1_555 1_555
H44K C33K 1_555 1_555
H45K C33K 1_555 1_555
C34K C32K 1_555 1_555
H46K C34K 1_555 1_555
C35K C34K 1_555 1_555
H47K C35K 1_555 1_555
H48K C35K 1_555 1_555
H49K C35K 1_555 1_555
O15K Pb3K 1_555 1_555
O16K Pb4K 1_555 1_555
C36K O15K 1_555 1_555
C37K C36K 1_555 1_555
C38K C37K 1_555 1_555
H50K C38K 1_555 1_555
H51K C38K 1_555 1_555
H52K C38K 1_555 1_555
C39K C37K 1_555 1_555
H53K C39K 1_555 1_555
C40K C39K 1_555 1_555
H54K C40K 1_555 1_555
H55K C40K 1_555 1_555
H56K C40K 1_555 1_555
Pb1F O2J 1_555 1_555
Pb1G O2K 1_555 1_555
Pb1H O2I 1_555 1_555
Pb1J_2 O4I 1_555 1_555
Pb1K_2 O4J 1_555 1_555
Pb1O Cl1 1_555 1_555
Pb1P Cl1 1_555 1_555
Pb1Q O2 1_555 1_555
Pb3A_2 O16K 1_555 1_555
Pb3I_2 O16A 1_555 1_555
Pb3J_2 O16B 1_555 1_555
Pb4A_2 O9I 1_555 1_555
Pb4B_2 O9J 1_555 1_555
Pb4K_2 O9A 1_555 1_555
O2F Pb1K 1_555 1_555
O2G Pb1I 1_555 1_555
O2H Pb1J 1_555 1_555
O2O Pb1B 1_555 1_555
O2P Pb1 1_555 1_555
O2Q Pb1A 1_555 1_555
O4I_2 Pb1J 1_555 1_555
O4J_2 Pb1K 1_555 1_555
O9A_2 Pb4K 1_555 1_555
O9I_2 Pb4A 1_555 1_555
O9J_2 Pb4B 1_555 1_555
O12A_2 Pb4K 1_555 1_555
O12I_2 Pb4A 1_555 1_555
O12J_2 Pb4B 1_555 1_555
O16A_2 Pb3I 1_555 1_555
O16B_2 Pb3J 1_555 1_555
O16K_2 Pb3A 1_555 1_555
Cl1F Pb1I 1_555 1_555
Cl1F_2 Pb1J 1_555 1_555
Pb2 O3 1_555 1_555
Pb2 O6 1_555 1_555
Pb3 O10 1_555 1_555
Pb4 O8 1_555 1_555
Pb4 O14 1_555 1_555
Pb4 O15 1_555 1_555
O4 C6 1_555 1_555
O6 C11 1_555 1_555
O8 C16 1_555 1_555
O10 C21 1_555 1_555
O12 C26 1_555 1_555
O12 Pb4J 1_555 1_555
O14 C31 1_555 1_555
O16 C36 1_555 1_555
Cl1 Pb1A 1_555 1_555
Cl1 Pb1Q 1_555 1_555
Pb2A O3A 1_555 1_555
Pb2A O6A 1_555 1_555
Pb3A O10A 1_555 1_555
Pb4A O8A 1_555 1_555
Pb4A O14A 1_555 1_555
Pb4A O15A 1_555 1_555
O2A C1A 1_555 1_555
O2A Pb1O 1_555 1_555
O4A C6A 1_555 1_555
O4A Pb1B 1_555 1_555
O6A C11A 1_555 1_555
O8A C16A 1_555 1_555
O10A C21A 1_555 1_555
O12A C26A 1_555 1_555
O12A Pb4K_2 1_555 1_555
O14A C31A 1_555 1_555
O16A C36A 1_555 1_555
Pb1B O4B 1_555 1_555
Pb2B O3B 1_555 1_555
Pb2B O6B 1_555 1_555
Pb3B O10B 1_555 1_555
Pb4B O8B 1_555 1_555
Pb4B O14B 1_555 1_555
Pb4B O15B 1_555 1_555
O2B C1B 1_555 1_555
O2B Pb1P 1_555 1_555
O4B C6B 1_555 1_555
O6B C11B 1_555 1_555
O8B C16B 1_555 1_555
O10B C21B 1_555 1_555
O12B C26B 1_555 1_555
O12B Pb4I 1_555 1_555
O14B C31B 1_555 1_555
O16B C36B 1_555 1_555
Pb2I O3I 1_555 1_555
Pb2I O6I 1_555 1_555
Pb3I O10I 1_555 1_555
Pb4I O5I 1_555 1_555
Pb4I O8I 1_555 1_555
Pb4I O14I 1_555 1_555
Pb4I O15I 1_555 1_555
Pb4I O16I 1_555 1_555
O4I C6I 1_555 1_555
O6I C11I 1_555 1_555
O8I C16I 1_555 1_555
O10I C21I 1_555 1_555
O12I C26I 1_555 1_555
O12I Pb4A_2 1_555 1_555
O14I C31I 1_555 1_555
O16I C36I 1_555 1_555
Pb2J O3J 1_555 1_555
Pb2J O6J 1_555 1_555
Pb3J O10J 1_555 1_555
Pb4J O5J 1_555 1_555
Pb4J O8J 1_555 1_555
Pb4J O14J 1_555 1_555
Pb4J O15J 1_555 1_555
Pb4J O16J 1_555 1_555
O4J C6J 1_555 1_555
O6J C11J 1_555 1_555
O8J C16J 1_555 1_555
O10J C21J 1_555 1_555
O12J C26J 1_555 1_555
O12J Pb4B_2 1_555 1_555
O14J C31J 1_555 1_555
O16J C36J 1_555 1_555
Pb1K O4K 1_555 1_555
Pb1K Cl1F 1_555 1_555
Pb2K O3K 1_555 1_555
Pb2K O6K 1_555 1_555
Pb3K O8K 1_555 1_555
Pb3K O9K 1_555 1_555
Pb3K O10K 1_555 1_555
Pb3K O12K 1_555 1_555
Pb4K O8K 1_555 1_555
Pb4K O14K 1_555 1_555
Pb4K O15K 1_555 1_555
O4K C6K 1_555 1_555
O6K C11K 1_555 1_555
O8K C16K 1_555 1_555
O10K C21K 1_555 1_555
O12K C26K 1_555 1_555
O14K C31K 1_555 1_555
O16K C36K 1_555 1_555
Pb1F Cl1F_2 1_555 1_555
Pb1G O2G 1_555 1_555
Pb1G Cl1F 1_555 1_555
Pb1H Cl1F 1_555 1_555
Pb1J_2 O4J_2 1_555 1_555
Pb1J_2 Cl1F 1_555 1_555
Pb1K_2 Cl1F_2 1_555 1_555
Pb1O O2O 1_555 1_555
Pb1P O2P 1_555 1_555
Pb1Q O2Q 1_555 1_555
Pb3A_2 O9A_2 1_555 1_555
Pb3A_2 O12A_2 1_555 1_555
Pb3I_2 O9I_2 1_555 1_555
Pb3I_2 O12I_2 1_555 1_555
Pb3J_2 O9J_2 1_555 1_555
Pb3J_2 O12J_2 1_555 1_555
Pb4A_2 O16A_2 1_555 1_555
Pb4B_2 O16B_2 1_555 1_555
Pb4K_2 O16K_2 1_555 1_555

#END
