
#######################################################################
#
#                 Cambridge Crystallographic Data Centre
#                                CCDC 
#
#######################################################################
#
# If this CIF has been generated from an entry in the Cambridge 
# Structural Database, then it will include bibliographic, chemical, 
# crystal, experimental, refinement or atomic coordinate data resulting 
# from the CCDC's data processing and validation procedures.
#
#######################################################################

data_ZUTXET
_symmetry_cell_setting           monoclinic
_symmetry_space_group_name_H-M   'P 21/c'
_symmetry_Int_Tables_number      14
_space_group_name_Hall           '-P 2ybc'
loop_
_symmetry_equiv_pos_site_id
_symmetry_equiv_pos_as_xyz
1 x,y,z
2 -x,1/2+y,1/2-z
3 -x,-y,-z
4 x,1/2-y,1/2+z
_cell_length_a                   12.564(3)
_cell_length_b                   8.4514(17)
_cell_length_c                   15.372(3)
_cell_angle_alpha                90
_cell_angle_beta                 102.46(3)
_cell_angle_gamma                90
_cell_volume                     1593.81
loop_
_atom_site_label
_atom_site_type_symbol
_atom_site_fract_x
_atom_site_fract_y
_atom_site_fract_z
Cd1 Cd 0.494087(12) -0.022859(18) 0.800917(9)
N1 N 0.31969(17) -0.0001(2) 0.70256(14)
N2 N 0.01733(18) 0.0589(3) 0.52244(14)
O1 O 0.45961(13) -0.29049(18) 0.79157(9)
O2 O 0.58786(13) -0.1009(2) 0.95183(10)
O3 O 0.68314(15) -0.0003(2) 0.86188(12)
O4 O 0.44724(15) -0.53674(18) 0.83219(11)
O5 O 0.42878(16) 0.1611(2) 0.88203(11)
C1 C 0.2525(2) 0.1210(3) 0.70672(16)
H1 H 0.2742 0.1977 0.7523
C2 C 0.1530(2) 0.1405(3) 0.64795(17)
H2 H 0.1077 0.2286 0.653
C3 C 0.1212(2) 0.0292(3) 0.58198(17)
C4 C 0.1901(2) -0.0968(3) 0.57624(15)
H3 H 0.1703 -0.1746 0.531
C5 C 0.28853(19) -0.1072(3) 0.63768(15)
H4 H 0.3357 -0.1935 0.6337
C6 C 0.6771(2) -0.0565(3) 0.93614(15)
C7 C 0.7793(2) -0.0694(4) 1.00847(17)
H5 H 0.8417 -0.0304 0.9859
H6 H 0.7915 -0.1802 1.0265
H7 H 0.771 -0.0057 1.0599
C8 C 0.43737(17) -0.3915(3) 0.84588(13)
C9 C 0.3983(2) -0.3413(3) 0.92732(15)
H8 H 0.3854 -0.4352 0.961
H9 H 0.3304 -0.2814 0.9094
H10 H 0.4538 -0.2746 0.9647
H11 H 0.436(3) 0.150(4) 0.942(2)
H12 H 0.432(2) 0.257(4) 0.8735(19)
N1B N -0.31969(17) 0.0001(2) 0.29744(14)
N2B N -0.01733(18) -0.0589(3) 0.47756(14)
C1B C -0.2525(2) -0.1210(3) 0.29328(16)
H1B H -0.2742 -0.1977 0.2477
C2B C -0.1530(2) -0.1405(3) 0.35205(17)
H2B H -0.1077 -0.2286 0.347
C3B C -0.1212(2) -0.0292(3) 0.41802(17)
C4B C -0.1901(2) 0.0968(3) 0.42376(15)
H3B H -0.1703 0.1746 0.469
C5B C -0.28853(19) 0.1072(3) 0.36232(15)
H4B H -0.3357 0.1935 0.3663
Cd1B Cd -0.494087(12) 0.022859(18) 0.199083(9)
O1B O -0.45961(13) 0.29049(18) 0.20843(9)
O2B O -0.58786(13) 0.1009(2) 0.04817(10)
O3B O -0.68314(15) 0.0003(2) 0.13812(12)
O4B O -0.44724(15) 0.53674(18) 0.16781(11)
O5B O -0.42878(16) -0.1611(2) 0.11797(11)
C6B C -0.6771(2) 0.0565(3) 0.06386(15)
C7B C -0.7793(2) 0.0694(4) -0.00847(17)
H5B H -0.8417 0.0304 0.0141
H6B H -0.7915 0.1802 -0.0265
H7B H -0.771 0.0057 -0.0599
C8B C -0.43737(17) 0.3915(3) 0.15412(13)
C9B C -0.3983(2) 0.3413(3) 0.07268(15)
H8B H -0.3854 0.4352 0.039
H9B H -0.3304 0.2814 0.0906
H10B H -0.4538 0.2746 0.0353
H11B H -0.436(3) -0.150(4) 0.058(2)
H12B H -0.432(2) -0.257(4) 0.1265(19)
Cd1A Cd 0.505913(12) -0.522859(18) 0.699083(9)
Cd1C Cd -0.505913(12) 0.522859(18) 0.300917(9)
O1A O 0.54039(13) 0.20951(18) 0.70843(9)
O1C O -0.54039(13) -0.20951(18) 0.29157(9)
O4A O 0.55276(15) -0.03674(18) 0.66781(11)
O4C O -0.55276(15) 0.03674(18) 0.33219(11)
Cl1 Cl 0.03188(6) 0.58260(9) 0.64949(5)
Cl2 Cl 0.13547(6) 0.77777(8) 0.79705(5)
Cl3 Cl 0.13562(6) 0.43880(8) 0.81751(4)
C10 C 0.1405(2) 0.5956(3) 0.74284(16)
H13 H 0.2107 0.5892 0.7223
loop_
_geom_bond_atom_site_label_1
_geom_bond_atom_site_label_2
_geom_bond_site_symmetry_1
_geom_bond_site_symmetry_2
Cd1 N1 1_555 1_555
N1 C1 1_555 1_555
N2 C3 1_555 1_555
O1 Cd1 1_555 1_555
O2 Cd1 1_555 1_555
O3 Cd1 1_555 1_555
O4 C8 1_555 1_555
O5 Cd1 1_555 1_555
C1 H1 1_555 1_555
C2 C1 1_555 1_555
H2 C2 1_555 1_555
C3 C2 1_555 1_555
C4 C3 1_555 1_555
H3 C4 1_555 1_555
C5 N1 1_555 1_555
H4 C5 1_555 1_555
C6 O2 1_555 1_555
C7 C6 1_555 1_555
H5 C7 1_555 1_555
H6 C7 1_555 1_555
H7 C7 1_555 1_555
C8 O1 1_555 1_555
C9 C8 1_555 1_555
H8 C9 1_555 1_555
H9 C9 1_555 1_555
H10 C9 1_555 1_555
H11 O5 1_555 1_555
H12 O5 1_555 1_555
Cl1 C10 1_555 1_555
Cl2 C10 1_555 1_555
Cl3 C10 1_555 1_555
C10 H13 1_555 1_555
N1B C1B 1_555 1_555
N2B N2 1_555 1_555
C1B H1B 1_555 1_555
C2B C1B 1_555 1_555
H2B C2B 1_555 1_555
C3B N2B 1_555 1_555
C4B C3B 1_555 1_555
H3B C4B 1_555 1_555
C5B N1B 1_555 1_555
H4B C5B 1_555 1_555
Cd1B N1B 1_555 1_555
O1B Cd1B 1_555 1_555
O2B Cd1B 1_555 1_555
O3B Cd1B 1_555 1_555
O4B C8B 1_555 1_555
O5B Cd1B 1_555 1_555
C6B O2B 1_555 1_555
C7B C6B 1_555 1_555
H5B C7B 1_555 1_555
H6B C7B 1_555 1_555
H7B C7B 1_555 1_555
C8B O1B 1_555 1_555
C9B C8B 1_555 1_555
H8B C9B 1_555 1_555
H9B C9B 1_555 1_555
H10B C9B 1_555 1_555
H11B O5B 1_555 1_555
H12B O5B 1_555 1_555
Cd1A O1 1_555 1_555
Cd1C O1B 1_555 1_555
O1A Cd1 1_555 1_555
O1C Cd1B 1_555 1_555
O4A Cd1 1_555 1_555
O4C Cd1B 1_555 1_555
O3 C6 1_555 1_555
O4 Cd1A 1_555 1_555
C4 C5 1_555 1_555
C2B C3B 1_555 1_555
C4B C5B 1_555 1_555
O3B C6B 1_555 1_555
O4B Cd1C 1_555 1_555

#END
