
#######################################################################
#
#                 Cambridge Crystallographic Data Centre
#                                CCDC 
#
#######################################################################
#
# If this CIF has been generated from an entry in the Cambridge 
# Structural Database, then it will include bibliographic, chemical, 
# crystal, experimental, refinement or atomic coordinate data resulting 
# from the CCDC's data processing and validation procedures.
#
#######################################################################

data_ZUTXUJ
_symmetry_cell_setting           triclinic
_symmetry_space_group_name_H-M   'P -1'
_symmetry_Int_Tables_number      2
_space_group_name_Hall           '-P 1'
loop_
_symmetry_equiv_pos_site_id
_symmetry_equiv_pos_as_xyz
1 x,y,z
2 -x,-y,-z
_cell_length_a                   6.3477(5)
_cell_length_b                   8.6551(7)
_cell_length_c                   10.2417(8)
_cell_angle_alpha                77.716(7)
_cell_angle_beta                 84.262(7)
_cell_angle_gamma                85.247(7)
_cell_volume                     545.943
loop_
_atom_site_label
_atom_site_type_symbol
_atom_site_fract_x
_atom_site_fract_y
_atom_site_fract_z
C1 C 0.4255(8) 0.3828(5) 0.1707(4)
H1 H 0.3955 0.4742 0.1021
H2 H 0.4398 0.2897 0.1328
H3 H 0.5552 0.3943 0.2075
C2 C 0.2440(6) 0.3672(4) 0.2816(3)
C3 C 0.1021(7) 0.2483(4) 0.2923(4)
H4 H 0.1279 0.1808 0.2322
C4 C -0.0760(6) 0.2222(4) 0.3860(3)
C5 C -0.2099(7) 0.0839(5) 0.3840(4)
H5 H -0.2023 0.0075 0.4668
H6 H -0.1568 0.0349 0.3105
H7 H -0.3548 0.1224 0.3736
C6 C -0.0964(5) 0.7166(4) 0.2136(3)
H8 H 0.0456 0.6873 0.194
C7 C -0.2022(6) 0.8192(4) 0.1149(3)
H9 H -0.1333 0.8582 0.0313
C8 C -0.4146(5) 0.8622(4) 0.1446(3)
C9 C -0.5111(5) 0.8014(4) 0.2695(3)
H10 H -0.6533 0.8282 0.2912
C10 C -0.3931(5) 0.6999(4) 0.3619(3)
H11 H -0.4593 0.6594 0.446
N1 N -0.1880(4) 0.6569(3) 0.3364(2)
N2 N -0.5487(5) 0.9689(3) 0.0523(3)
O1 O 0.2366(3) 0.4664(2) 0.3566(2)
O2 O -0.1359(3) 0.3016(2) 0.4736(2)
Zn1 Zn 0.000 0.500 0.500
C6A C -0.9036(5) 1.2834(4) -0.2136(3)
H8A H -1.0456 1.3127 -0.194
C7A C -0.7978(6) 1.1808(4) -0.1149(3)
H9A H -0.8667 1.1418 -0.0313
C8A C -0.5854(5) 1.1378(4) -0.1446(3)
C9A C -0.4889(5) 1.1986(4) -0.2695(3)
H10A H -0.3467 1.1718 -0.2912
C10A C -0.6069(5) 1.3001(4) -0.3619(3)
H11A H -0.5407 1.3406 -0.446
N1A N -0.8120(4) 1.3431(3) -0.3364(2)
N2A N -0.4513(5) 1.0311(3) -0.0523(3)
C1A C -0.4255(8) 0.6172(5) 0.8293(4)
H1A H -0.3955 0.5258 0.8979
H2A H -0.4398 0.7103 0.8672
H3A H -0.5552 0.6057 0.7925
C2A C -0.2440(6) 0.6328(4) 0.7184(3)
C3A C -0.1021(7) 0.7517(4) 0.7077(4)
H4A H -0.1279 0.8192 0.7678
C4A C 0.0760(6) 0.7778(4) 0.6140(3)
C5A C 0.2099(7) 0.9161(5) 0.6160(4)
H5A H 0.2023 0.9925 0.5332
H6A H 0.1568 0.9651 0.6895
H7A H 0.3548 0.8776 0.6264
O1A O -0.2366(3) 0.5336(2) 0.6434(2)
O2A O 0.1359(3) 0.6984(2) 0.5264(2)
N1A_2 N 0.1880(4) 0.3431(3) 0.6636(2)
Zn1_2 Zn -1.000 1.500 -0.500
loop_
_geom_bond_atom_site_label_1
_geom_bond_atom_site_label_2
_geom_bond_site_symmetry_1
_geom_bond_site_symmetry_2
C1 H1 1_555 1_555
H2 C1 1_555 1_555
H3 C1 1_555 1_555
C2 C1 1_555 1_555
C3 C2 1_555 1_555
H4 C3 1_555 1_555
C4 C3 1_555 1_555
C5 C4 1_555 1_555
H5 C5 1_555 1_555
H6 C5 1_555 1_555
H7 C5 1_555 1_555
C6 H8 1_555 1_555
C7 C6 1_555 1_555
H9 C7 1_555 1_555
C8 C7 1_555 1_555
C9 C8 1_555 1_555
H10 C9 1_555 1_555
C10 C9 1_555 1_555
H11 C10 1_555 1_555
N1 C6 1_555 1_555
N2 C8 1_555 1_555
O1 C2 1_555 1_555
O2 C4 1_555 1_555
Zn1 N1 1_555 1_555
C6A H8A 1_555 1_555
C7A C6A 1_555 1_555
H9A C7A 1_555 1_555
C8A C7A 1_555 1_555
C9A C8A 1_555 1_555
H10A C9A 1_555 1_555
C10A C9A 1_555 1_555
H11A C10A 1_555 1_555
N1A C6A 1_555 1_555
N2A N2 1_555 1_555
C1A H1A 1_555 1_555
H2A C1A 1_555 1_555
H3A C1A 1_555 1_555
C2A C1A 1_555 1_555
C3A C2A 1_555 1_555
H4A C3A 1_555 1_555
C4A C3A 1_555 1_555
C5A C4A 1_555 1_555
H5A C5A 1_555 1_555
H6A C5A 1_555 1_555
H7A C5A 1_555 1_555
O1A Zn1 1_555 1_555
O2A Zn1 1_555 1_555
N1A_2 Zn1 1_555 1_555
Zn1_2 N1A 1_555 1_555
C10 N1 1_555 1_555
O1 Zn1 1_555 1_555
O2 Zn1 1_555 1_555
C8A N2A 1_555 1_555
C10A N1A 1_555 1_555
C2A O1A 1_555 1_555
C4A O2A 1_555 1_555

#END
