
#######################################################################
#
#                 Cambridge Crystallographic Data Centre
#                                CCDC 
#
#######################################################################
#
# If this CIF has been generated from an entry in the Cambridge 
# Structural Database, then it will include bibliographic, chemical, 
# crystal, experimental, refinement or atomic coordinate data resulting 
# from the CCDC's data processing and validation procedures.
#
#######################################################################

data_ZUVVAN
_symmetry_cell_setting           monoclinic
_symmetry_space_group_name_H-M   'P 21/n'
_symmetry_Int_Tables_number      14
_space_group_name_Hall           '-P 2yn'
loop_
_symmetry_equiv_pos_site_id
_symmetry_equiv_pos_as_xyz
1 x,y,z
2 1/2-x,1/2+y,1/2-z
3 -x,-y,-z
4 1/2+x,1/2-y,1/2+z
_cell_length_a                   12.465(3)
_cell_length_b                   5.999(1)
_cell_length_c                   14.733(3)
_cell_angle_alpha                90
_cell_angle_beta                 111.91(1)
_cell_angle_gamma                90
_cell_volume                     1022.12
loop_
_atom_site_label
_atom_site_type_symbol
_atom_site_fract_x
_atom_site_fract_y
_atom_site_fract_z
Cu1 Cu 0.59098(5) 0.2186(10) 0.80519(4)
O1 O 0.6736(3) 0.0026(6) 0.7567(2)
O2 O 0.7583(3) 0.4630(7) 0.8623(2)
O3 O 0.4926(3) 0.4575(6) 0.8234(2)
O4 O 0.4155(3) 0.7820(7) 0.7560(2)
N1 N 0.5201(3) 0.3130(6) 0.6644(2)
N2 N 0.6288(3) 0.0985(7) 0.936(3)
N3 N 0.6349(3) 0.0834(8) 1.0861(3)
C1 C 0.6782(4) 0.0550(8) 0.6743(3)
C2 C 0.6036(3) 0.2473(8) 0.6193(3)
C3 C 0.5009(4) 0.5549(8) 0.6692(3)
C4 C 0.4655(4) 0.6033(9) 0.7561(3)
C5 C 0.4083(4) 0.196(1) 0.6158(4)
C6 C 0.6096(4) 0.2071(9) 1.0067(3)
C7 C 0.6723(4) -0.1206(9) 1.0671(3)
C8 C 0.6686(4) -0.1092(8) 0.9743(3)
O2A O 0.7417(3) -0.0370(7) 0.6377(2)
Cu1A Cu 0.90902(5) -0.2814(10) 0.69481(4)
loop_
_geom_bond_atom_site_label_1
_geom_bond_atom_site_label_2
_geom_bond_site_symmetry_1
_geom_bond_site_symmetry_2
Cu1 O1 1_555 1_555
O1 C1 1_555 1_555
O2 Cu1 1_555 1_555
O3 Cu1 1_555 1_555
O4 C4 1_555 1_555
N1 Cu1 1_555 1_555
N2 Cu1 1_555 1_555
N3 C6 1_555 1_555
C1 C2 1_555 1_555
C2 N1 1_555 1_555
C3 N1 1_555 1_555
C4 O3 1_555 1_555
C5 N1 1_555 1_555
C6 N2 1_555 1_555
C7 N3 1_555 1_555
C8 N2 1_555 1_555
O2A C1 1_555 1_555
Cu1A O2A 1_555 1_555
C3 C4 1_555 1_555
C7 C8 1_555 1_555

#END
