
#######################################################################
#
#                 Cambridge Crystallographic Data Centre
#                                CCDC 
#
#######################################################################
#
# If this CIF has been generated from an entry in the Cambridge 
# Structural Database, then it will include bibliographic, chemical, 
# crystal, experimental, refinement or atomic coordinate data resulting 
# from the CCDC's data processing and validation procedures.
#
#######################################################################

data_ZUVVAN01
_symmetry_cell_setting           monoclinic
_symmetry_space_group_name_H-M   'P 21/c'
_symmetry_Int_Tables_number      14
_space_group_name_Hall           '-P 2ybc'
loop_
_symmetry_equiv_pos_site_id
_symmetry_equiv_pos_as_xyz
1 x,y,z
2 -x,1/2+y,1/2-z
3 -x,-y,-z
4 x,1/2-y,1/2+z
_cell_length_a                   12.4232(9)
_cell_length_b                   5.9707(6)
_cell_length_c                   15.252(1)
_cell_angle_alpha                90
_cell_angle_beta                 116.601(8)
_cell_angle_gamma                90
_cell_volume                     1011.57
loop_
_atom_site_label
_atom_site_type_symbol
_atom_site_fract_x
_atom_site_fract_y
_atom_site_fract_z
Cu1 Cu -0.2142(1) -0.2168(1) -0.8048(1)
O1 O -0.0827(1) 0.0008(2) -0.7562(1)
O2 O 0.1052(1) 0.0387(2) -0.6374(1)
O3 O -0.3316(1) -0.4581(2) -0.8232(1)
O4 O -0.3396(1) -0.7861(2) -0.7558(1)
N1 N -0.3075(1) -0.0949(2) -0.9360(1)
N2 N -0.4525(1) -0.0786(2) -1.0865(1)
N3 N -0.1442(1) -0.3122(2) -0.6636(1)
C1 C -0.3974(2) -0.2049(3) -1.0061(1)
C2 C -0.3950(1) 0.1252(3) -1.0678(1)
C3 C -0.3056(1) 0.1146(3) -0.9747(1)
C4 C -0.0158(1) -0.2476(3) -0.6179(1)
C5 C 0.0049(1) -0.0524(3) -0.6743(1)
C6 C -0.1673(1) -0.5562(3) -0.6688(1)
C7 C -0.2901(1) -0.6060(3) -0.7557(1)
C8 C -0.2085(2) -0.1968(3) -0.6146(1)
Cu1A Cu 0.2142(1) 0.2832(1) -0.6952(1)
O2A O -0.1052(1) -0.4613(2) -0.8626(1)
loop_
_geom_bond_atom_site_label_1
_geom_bond_atom_site_label_2
_geom_bond_site_symmetry_1
_geom_bond_site_symmetry_2
Cu1 O1 1_555 1_555
O1 C5 1_555 1_555
O2 C5 1_555 1_555
O3 Cu1 1_555 1_555
O4 C7 1_555 1_555
N1 Cu1 1_555 1_555
N2 C1 1_555 1_555
N3 Cu1 1_555 1_555
C1 N1 1_555 1_555
C2 N2 1_555 1_555
C3 N1 1_555 1_555
C4 N3 1_555 1_555
C5 C4 1_555 1_555
C6 N3 1_555 1_555
C7 O3 1_555 1_555
C8 N3 1_555 1_555
Cu1A O2 1_555 1_555
O2A Cu1 1_555 1_555
C2 C3 1_555 1_555
C6 C7 1_555 1_555

#END
