
#######################################################################
#
#                 Cambridge Crystallographic Data Centre
#                                CCDC 
#
#######################################################################
#
# If this CIF has been generated from an entry in the Cambridge 
# Structural Database, then it will include bibliographic, chemical, 
# crystal, experimental, refinement or atomic coordinate data resulting 
# from the CCDC's data processing and validation procedures.
#
#######################################################################

data_ZUVXOF
_symmetry_cell_setting           orthorhombic
_symmetry_space_group_name_H-M   'P b n b'
_symmetry_Int_Tables_number      56
_space_group_name_Hall           '-P 2bc 2ab'
loop_
_symmetry_equiv_pos_site_id
_symmetry_equiv_pos_as_xyz
1 x,y,z
2 -x,1/2-y,1/2+z
3 1/2+x,1/2-y,-z
4 1/2-x,y,1/2-z
5 -x,-y,-z
6 x,1/2+y,1/2-z
7 1/2-x,1/2+y,z
8 1/2+x,-y,1/2+z
_cell_length_a                   17.7157(6)
_cell_length_b                   22.1231(8)
_cell_length_c                   25.3814(9)
_cell_angle_alpha                90
_cell_angle_beta                 90
_cell_angle_gamma                90
_cell_volume                     9947.64
loop_
_atom_site_label
_atom_site_type_symbol
_atom_site_fract_x
_atom_site_fract_y
_atom_site_fract_z
Cu1 Cu 0.94383(2) 0.03615(2) 0.01442(2)
O1 O 0.51902(11) 0.40057(8) -0.00348(10)
O2 O 0.61552(10) 0.46036(8) 0.01893(8)
O3 O 0.98551(12) 0.02099(9) 0.08466(8)
O4 O 1.07991(12) -0.04084(9) 0.06151(8)
N1 N 0.85608(12) 0.09804(9) 0.04245(9)
N2 N 0.76496(13) 0.04808(10) -0.00468(10)
H1 H 0.7228 0.0474 -0.0214
H2 H 0.7919 0.0158 -0.0025
N3 N 0.82906(13) 0.19922(10) 0.06940(10)
N4 N 0.74360(13) 0.14693(9) 0.01272(9)
N5 N 1.14057(15) -0.05362(12) 0.41796(11)
C1 C 0.76814(15) 0.19614(11) 0.03873(11)
N6 N 0.93101(14) 0.14818(11) 0.10168(11)
H3 H 0.9420 0.1794 0.1203
H4 H 0.9590 0.1165 0.1032
N7 N 1.14900(17) -0.09137(12) 0.32937(11)
C2 C 0.87094(15) 0.14889(12) 0.07058(11)
C3 C 0.70943(15) 0.36033(12) 0.03410(12)
H5 H 0.7299 0.3982 0.0410
C4 C 0.78810(14) 0.09795(11) 0.01739(10)
C5 C 0.64803(16) 0.24686(12) 0.01416(13)
H6 H 0.6267 0.2090 0.0086
N8 N 1.19721(19) -0.14296(12) 0.39862(11)
H7 H 1.2117 -0.1703 0.3768
H8 H 1.2062 -0.1471 0.4317
C6 C 0.75241(16) 0.30901(12) 0.04108(14)
H9 H 0.8020 0.3127 0.0528
C7 C 1.04050(16) -0.01317(13) 0.09457(12)
C8 C 0.72283(15) 0.25118(11) 0.03089(11)
C9 C 1.12225(19) -0.05513(14) 0.16620(13)
H10 H 1.1517 -0.0740 0.1407
N9 N 1.08862(18) 0.00272(15) 0.34593(12)
C10 C 0.63503(16) 0.35517(12) 0.01663(12)
C11 C 1.06199(18) -0.02046(15) 0.15139(13)
C12 C 1.1114(2) -0.04113(16) 0.31509(13)
C13 C 0.58660(15) 0.41037(11) 0.01044(11)
C14 C 1.1036(2) -0.00472(18) 0.39835(14)
C15 C 1.16115(18) -0.09484(14) 0.38141(13)
C16 C 1.13986(19) -0.06236(15) 0.21996(13)
H11 H 1.1813 -0.0854 0.2301
C17 C 0.60484(16) 0.29847(12) 0.00567(13)
H12 H 0.5559 0.2951 -0.0073
C18 C 1.0173(2) 0.0066(2) 0.18972(14)
H13 H 0.9753 0.0290 0.1795
N10 N 1.0832(2) 0.03714(17) 0.43163(13)
H14 H 1.0932 0.0332 0.4646
H15 H 1.0597 0.0687 0.4206
C19 C 1.0955(2) -0.03513(17) 0.25719(13)
C20 C 1.0340(2) 0.0010(2) 0.24229(15)
H16 H 1.0051 0.0208 0.2676
Cu1B Cu 0.44383(2) 0.46385(2) -0.01442(2)
Cu1D Cu 1.05617(2) -0.03615(2) -0.01442(2)
Cu1F Cu 0.55617(2) 0.53615(2) 0.01442(2)
O1B O 1.01902(11) 0.09943(8) 0.00348(10)
O2F O 0.88448(10) -0.03964(8) 0.01893(8)
O4D O 0.92009(12) 0.04084(9) -0.06151(8)
loop_
_geom_bond_atom_site_label_1
_geom_bond_atom_site_label_2
_geom_bond_site_symmetry_1
_geom_bond_site_symmetry_2
Cu1 O3 1_555 1_555
O1 C13 1_555 1_555
O2 C13 1_555 1_555
O3 C7 1_555 1_555
O4 C7 1_555 1_555
N1 Cu1 1_555 1_555
N2 H1 1_555 1_555
H2 N2 1_555 1_555
N3 C1 1_555 1_555
N4 C1 1_555 1_555
N5 C14 1_555 1_555
C1 C8 1_555 1_555
N6 H3 1_555 1_555
H4 N6 1_555 1_555
N7 C12 1_555 1_555
C2 N1 1_555 1_555
C3 H5 1_555 1_555
C4 N1 1_555 1_555
C5 H6 1_555 1_555
N8 H7 1_555 1_555
H8 N8 1_555 1_555
C6 C3 1_555 1_555
H9 C6 1_555 1_555
C7 C11 1_555 1_555
C8 C5 1_555 1_555
C9 H10 1_555 1_555
N9 C12 1_555 1_555
C10 C3 1_555 1_555
C11 C9 1_555 1_555
C12 C19 1_555 1_555
C13 C10 1_555 1_555
C14 N9 1_555 1_555
C15 N5 1_555 1_555
C16 C9 1_555 1_555
H11 C16 1_555 1_555
C17 C5 1_555 1_555
H12 C17 1_555 1_555
C18 C11 1_555 1_555
H13 C18 1_555 1_555
N10 C14 1_555 1_555
H14 N10 1_555 1_555
H15 N10 1_555 1_555
C19 C16 1_555 1_555
C20 C18 1_555 1_555
H16 C20 1_555 1_555
Cu1B O1 1_555 1_555
Cu1D O4 1_555 1_555
Cu1F O2 1_555 1_555
O1B Cu1 1_555 1_555
O2F Cu1 1_555 1_555
O4D Cu1 1_555 1_555
N2 C4 1_555 1_555
N3 C2 1_555 1_555
N4 C4 1_555 1_555
N6 C2 1_555 1_555
N7 C15 1_555 1_555
N8 C15 1_555 1_555
C6 C8 1_555 1_555
C10 C17 1_555 1_555
C19 C20 1_555 1_555

#END
