
#######################################################################
#
#                 Cambridge Crystallographic Data Centre
#                                CCDC 
#
#######################################################################
#
# If this CIF has been generated from an entry in the Cambridge 
# Structural Database, then it will include bibliographic, chemical, 
# crystal, experimental, refinement or atomic coordinate data resulting 
# from the CCDC's data processing and validation procedures.
#
#######################################################################

data_ZUWFAY
_symmetry_cell_setting           monoclinic
_symmetry_space_group_name_H-M   'C 2/c'
_symmetry_Int_Tables_number      15
_space_group_name_Hall           '-C 2yn'
loop_
_symmetry_equiv_pos_site_id
_symmetry_equiv_pos_as_xyz
1 x,y,z
2 -x,y,1/2-z
3 1/2+x,1/2+y,z
4 1/2-x,1/2+y,1/2-z
5 -x,-y,-z
6 x,-y,1/2+z
7 1/2-x,1/2-y,-z
8 1/2+x,1/2-y,1/2+z
_cell_length_a                   32.18(1)
_cell_length_b                   5.546(4)
_cell_length_c                   8.495(4)
_cell_angle_alpha                90
_cell_angle_beta                 103.21(3)
_cell_angle_gamma                90
_cell_volume                     1475.99
loop_
_atom_site_label
_atom_site_type_symbol
_atom_site_fract_x
_atom_site_fract_y
_atom_site_fract_z
Ba1 Ba 0.00000 0.10236(8) 0.2500
P1 P -0.06690(5) -0.3341(3) 0.0644(2)
O1 O -0.0554(2) -0.2973(8) 0.2445(5)
O2 O -0.0582(2) -0.6084(7) 0.0332(5)
O3 O -0.0423(1) -0.1706(7) -0.0212(5)
C1 C -0.1228(2) -0.291(1) -0.0173(7)
C2 C -0.1528(2) -0.446(1) 0.0227(9)
C3 C -0.1961(3) -0.412(1) -0.043(1)
C4 C -0.2096(2) -0.224(2) -0.147(1)
C5 C -0.1804(3) -0.070(1) -0.187(1)
C6 C -0.1370(2) -0.101(1) -0.1228(9)
H1 H -0.1897 0.0594 -0.2598
H2 H -0.1170 0.0089 -0.1496
H3 H -0.1433 -0.5780 0.0957
H4 H -0.2164 -0.5222 -0.0142
H5 H -0.2396 -0.2007 -0.1932
O1A O 0.0554(2) -0.2973(8) 0.2555(5)
O2A O 0.0582(2) 0.3916(7) 0.4668(5)
O3A O 0.0423(1) -0.1706(7) 0.5212(5)
O3D O 0.0423(1) 0.1706(7) 0.0212(5)
O3E O -0.0423(1) 0.1706(7) 0.4788(5)
O2_2 O -0.0582(2) 0.3916(7) 0.0332(5)
Ba1D Ba 0.00000 -0.10236(8) -0.2500
P1A P 0.06690(5) -0.3341(3) 0.4356(2)
Ba1D_2 Ba 0.00000 -0.10236(8) 0.7500
O2A_2 O 0.0582(2) -0.6084(7) 0.4668(5)
C1A C 0.1228(2) -0.291(1) 0.5173(7)
Ba1_2 Ba 0.00000 -0.89764(8) 0.2500
C2A C 0.1528(2) -0.446(1) 0.4773(9)
C6A C 0.1370(2) -0.101(1) 0.6228(9)
C3A C 0.1961(3) -0.412(1) 0.543(1)
H3A H 0.1433 -0.5780 0.4043
C5A C 0.1804(3) -0.070(1) 0.687(1)
H2A H 0.1170 0.0089 0.6496
C4A C 0.2096(2) -0.224(2) 0.647(1)
H4A H 0.2164 -0.5222 0.5142
H1A H 0.1897 0.0594 0.7598
H5A H 0.2396 -0.2007 0.6932
loop_
_geom_bond_atom_site_label_1
_geom_bond_atom_site_label_2
_geom_bond_site_symmetry_1
_geom_bond_site_symmetry_2
Ba1 O1 1_555 1_555
P1 O1 1_555 1_555
O2 P1 1_555 1_555
O3 Ba1 1_555 1_555
C1 P1 1_555 1_555
C2 C1 1_555 1_555
C3 C2 1_555 1_555
C4 C3 1_555 1_555
C5 C4 1_555 1_555
C6 C1 1_555 1_555
H1 C5 1_555 1_555
H2 C6 1_555 1_555
H3 C2 1_555 1_555
H4 C3 1_555 1_555
H5 C4 1_555 1_555
O1A Ba1 1_555 1_555
O2A Ba1 1_555 1_555
O3A Ba1 1_555 1_555
O3D Ba1 1_555 1_555
O3E Ba1 1_555 1_555
O2_2 Ba1 1_555 1_555
Ba1D O3 1_555 1_555
P1A O1A 1_555 1_555
Ba1D_2 O3A 1_555 1_555
O2A_2 P1A 1_555 1_555
C1A P1A 1_555 1_555
Ba1_2 O2 1_555 1_555
C2A C1A 1_555 1_555
C6A C1A 1_555 1_555
C3A C2A 1_555 1_555
H3A C2A 1_555 1_555
C5A C6A 1_555 1_555
H2A C6A 1_555 1_555
C4A C3A 1_555 1_555
H4A C3A 1_555 1_555
H1A C5A 1_555 1_555
H5A C4A 1_555 1_555
P1 O3 1_555 1_555
C5 C6 1_555 1_555
O3A P1A 1_555 1_555
O3D Ba1D 1_555 1_555
O3E Ba1D_2 1_555 1_555
O2A_2 Ba1_2 1_555 1_555
C5A C4A 1_555 1_555

#END
