
#######################################################################
#
#                 Cambridge Crystallographic Data Centre
#                                CCDC 
#
#######################################################################
#
# If this CIF has been generated from an entry in the Cambridge 
# Structural Database, then it will include bibliographic, chemical, 
# crystal, experimental, refinement or atomic coordinate data resulting 
# from the CCDC's data processing and validation procedures.
#
#######################################################################

data_ZUWFAZ01
_symmetry_cell_setting           monoclinic
_symmetry_space_group_name_H-M   'C 2/c'
_symmetry_Int_Tables_number      15
_space_group_name_Hall           '-C 2yn'
loop_
_symmetry_equiv_pos_site_id
_symmetry_equiv_pos_as_xyz
1 x,y,z
2 1/2+x,1/2+y,z
3 x,-y,1/2+z
4 1/2+x,1/2-y,1/2+z
5 -x,-y,-z
6 1/2-x,1/2-y,-z
7 -x,y,1/2-z
8 1/2-x,1/2+y,1/2-z
_cell_length_a                   31.681(6)
_cell_length_b                   5.5639(11)
_cell_length_c                   8.2515(16)
_cell_angle_alpha                90
_cell_angle_beta                 101.814(4)
_cell_angle_gamma                90
_cell_volume                     1423.68
loop_
_atom_site_label
_atom_site_type_symbol
_atom_site_fract_x
_atom_site_fract_y
_atom_site_fract_z
Pb1 Pb 0.5000 0.57736(8) 0.2500
P1 P 0.56462(7) 0.1734(4) 0.4269(2)
O1 O 0.55442(19) 0.2235(10) 0.2448(6)
O2 O 0.53919(17) 0.3370(10) 0.5155(7)
O3 O 0.55466(19) -0.0996(10) 0.4500(7)
H1 H 0.551(3) -0.118(14) 0.562(11)
C1 C 0.6206(3) 0.2132(15) 0.5138(10)
C2 C 0.6353(3) 0.3995(16) 0.6169(11)
H2 H 0.6157 0.5093 0.6437
C3 C 0.6781(2) 0.4284(14) 0.6814(9)
H3 H 0.6870 0.5577 0.7515
C4 C 0.7081(2) 0.2736(14) 0.6462(9)
H4 H 0.7373 0.2965 0.6896
C5 C 0.6937(3) 0.0780(19) 0.5422(14)
H5 H 0.7134 -0.0344 0.5195
C6 C 0.6516(3) 0.0522(18) 0.4753(13)
H6 H 0.6426 -0.0740 0.4025
P1F P 0.43538(7) 0.1734(4) 0.0731(2)
O1F O 0.44558(19) 0.2235(10) 0.2552(6)
O2F O 0.46081(17) 0.3370(10) -0.0155(7)
O3F O 0.44534(19) -0.0996(10) 0.0500(7)
H1F H 0.449(3) -0.118(14) -0.062(11)
C1F C 0.3794(3) 0.2132(15) -0.0138(10)
C2F C 0.3647(3) 0.3995(16) -0.1169(11)
H2F H 0.3843 0.5093 -0.1437
C3F C 0.3219(2) 0.4284(14) -0.1814(9)
H3F H 0.3130 0.5577 -0.2515
C4F C 0.2919(2) 0.2736(14) -0.1462(9)
H4F H 0.2627 0.2965 -0.1896
C5F C 0.3063(3) 0.0780(19) -0.0422(14)
H5F H 0.2866 -0.0344 -0.0195
C6F C 0.3484(3) 0.0522(18) 0.0247(13)
H6F H 0.3574 -0.0740 0.0975
O2B O 0.53919(17) 0.6630(10) 0.0155(7)
O2D O 0.46081(17) 0.6630(10) 0.4845(7)
O3_2 O 0.55466(19) 0.9004(10) 0.4500(7)
O3F_2 O 0.44534(19) 0.9004(10) 0.0500(7)
Pb1B Pb 0.5000 0.42264(8) 0.7500
Pb1_2 Pb 0.5000 -0.42264(8) 0.2500
Pb1B_2 Pb 0.5000 0.42264(8) -0.2500
H1_2 H 0.551(3) 0.882(14) 0.562(11)
H1F_2 H 0.449(3) 0.882(14) -0.062(11)
loop_
_geom_bond_atom_site_label_1
_geom_bond_atom_site_label_2
_geom_bond_site_symmetry_1
_geom_bond_site_symmetry_2
Pb1 O1 1_555 1_555
P1 O1 1_555 1_555
O2 Pb1 1_555 1_555
O3 P1 1_555 1_555
H1 O3 1_555 1_555
C1 P1 1_555 1_555
C2 C1 1_555 1_555
H2 C2 1_555 1_555
C3 C2 1_555 1_555
H3 C3 1_555 1_555
C4 C3 1_555 1_555
H4 C4 1_555 1_555
C5 C4 1_555 1_555
H5 C5 1_555 1_555
C6 C1 1_555 1_555
H6 C6 1_555 1_555
P1F O1F 1_555 1_555
O1F Pb1 1_555 1_555
O2F Pb1 1_555 1_555
O3F P1F 1_555 1_555
H1F O3F 1_555 1_555
C1F P1F 1_555 1_555
C2F C1F 1_555 1_555
H2F C2F 1_555 1_555
C3F C2F 1_555 1_555
H3F C3F 1_555 1_555
C4F C3F 1_555 1_555
H4F C4F 1_555 1_555
C5F C4F 1_555 1_555
H5F C5F 1_555 1_555
C6F C1F 1_555 1_555
H6F C6F 1_555 1_555
O2B Pb1 1_555 1_555
O2D Pb1 1_555 1_555
O3_2 Pb1 1_555 1_555
O3F_2 Pb1 1_555 1_555
Pb1B O2 1_555 1_555
Pb1_2 O3 1_555 1_555
Pb1B_2 O2F 1_555 1_555
H1_2 O3_2 1_555 1_555
H1F_2 O3F_2 1_555 1_555
P1 O2 1_555 1_555
C5 C6 1_555 1_555
P1F O2F 1_555 1_555
O3F Pb1_2 1_555 1_555
C5F C6F 1_555 1_555
O2B Pb1B_2 1_555 1_555
O2D Pb1B 1_555 1_555

#END
