
#######################################################################
#
#                 Cambridge Crystallographic Data Centre
#                                CCDC 
#
#######################################################################
#
# If this CIF has been generated from an entry in the Cambridge 
# Structural Database, then it will include bibliographic, chemical, 
# crystal, experimental, refinement or atomic coordinate data resulting 
# from the CCDC's data processing and validation procedures.
#
#######################################################################

data_ZUWNIO
_symmetry_cell_setting           monoclinic
_symmetry_space_group_name_H-M   'P 21/a'
_symmetry_Int_Tables_number      14
_space_group_name_Hall           '-P 2yab'
loop_
_symmetry_equiv_pos_site_id
_symmetry_equiv_pos_as_xyz
1 x,y,z
2 1/2-x,1/2+y,-z
3 -x,-y,-z
4 1/2+x,1/2-y,z
_cell_length_a                   10.478(2)
_cell_length_b                   13.779(2)
_cell_length_c                   14.513(2)
_cell_angle_alpha                90
_cell_angle_beta                 100.39(1)
_cell_angle_gamma                90
_cell_volume                     2060.98
loop_
_atom_site_label
_atom_site_type_symbol
_atom_site_fract_x
_atom_site_fract_y
_atom_site_fract_z
Cu1 Cu 0.64695(6) 0.04796(5) 0.75418(4)
V1 V 0.77238(7) -0.16974(6) 0.74894(5)
V2 V 1.07755(8) -0.14599(6) 0.71012(6)
O1 O 0.7352(3) -0.0585(2) 0.7051(2)
O2 O 0.7362(3) -0.1764(3) 0.8523(2)
O3 O 0.9404(3) -0.1945(3) 0.7577(2)
O4 O 0.6744(3) -0.2541(2) 0.6747(2)
O5 O 1.0248(4) -0.0809(3) 0.6188(2)
O6 O 1.1675(3) -0.0774(3) 0.7873(2)
N1 N 0.8063(4) 0.0809(3) 0.8429(3)
N2 N 0.5677(4) 0.0819(3) 0.8722(3)
N3 N 0.6196(4) 0.1854(3) 0.6857(3)
N4 N 0.4879(4) 0.0218(3) 0.6600(3)
C1 C 0.9246(5) 0.0738(4) 0.8224(4)
C2 C 1.0348(5) 0.0946(4) 0.8872(4)
C3 C 1.0215(5) 0.1219(4) 0.9771(4)
C4 C 0.8982(5) 0.1288(4) 0.9980(3)
C5 C 0.7922(5) 0.1081(3) 0.9307(3)
C6 C 0.6563(5) 0.1115(3) 0.9451(3)
C7 C 0.6234(5) 0.1417(4) 1.0284(3)
C8 C 0.4941(5) 0.1418(4) 1.0358(4)
C9 C 0.4028(5) 0.1109(4) 0.9623(4)
C10 C 0.4425(5) 0.0825(4) 0.8808(4)
C11 C 0.6826(5) 0.2690(4) 0.7101(4)
C12 C 0.6478(6) 0.3560(4) 0.6643(4)
C13 C 0.5497(6) 0.3548(4) 0.5882(4)
C14 C 0.4856(5) 0.2685(4) 0.5615(4)
C15 C 0.5205(5) 0.1860(4) 0.6133(3)
C16 C 0.4519(4) 0.0913(4) 0.5954(3)
C17 C 0.3560(5) 0.0744(4) 0.5179(3)
C18 C 0.2951(5) -0.0142(4) 0.5083(4)
C19 C 0.3322(5) -0.0847(4) 0.5749(4)
C20 C 0.4278(5) -0.0642(4) 0.6495(3)
O4C O 1.1744(3) -0.2459(2) 0.6747(2)
V1C V 1.27238(7) -0.33026(6) 0.74894(5)
loop_
_geom_bond_atom_site_label_1
_geom_bond_atom_site_label_2
_geom_bond_site_symmetry_1
_geom_bond_site_symmetry_2
Cu1 O1 1_555 1_555
V1 O1 1_555 1_555
V2 O3 1_555 1_555
O2 V1 1_555 1_555
O3 V1 1_555 1_555
O4 V1 1_555 1_555
O5 V2 1_555 1_555
O6 V2 1_555 1_555
N1 Cu1 1_555 1_555
N2 Cu1 1_555 1_555
N3 Cu1 1_555 1_555
N4 Cu1 1_555 1_555
C1 N1 1_555 1_555
C2 C1 1_555 1_555
C3 C2 1_555 1_555
C4 C3 1_555 1_555
C5 N1 1_555 1_555
C6 N2 1_555 1_555
C7 C6 1_555 1_555
C8 C7 1_555 1_555
C9 C8 1_555 1_555
C10 N2 1_555 1_555
C11 N3 1_555 1_555
C12 C11 1_555 1_555
C13 C12 1_555 1_555
C14 C13 1_555 1_555
C15 N3 1_555 1_555
C16 N4 1_555 1_555
C17 C16 1_555 1_555
C18 C17 1_555 1_555
C19 C18 1_555 1_555
C20 N4 1_555 1_555
O4C V2 1_555 1_555
V1C O4C 1_555 1_555
C4 C5 1_555 1_555
C5 C6 1_555 1_555
C9 C10 1_555 1_555
C14 C15 1_555 1_555
C15 C16 1_555 1_555
C19 C20 1_555 1_555

#END
