
#######################################################################
#
#                 Cambridge Crystallographic Data Centre
#                                CCDC 
#
#######################################################################
#
# If this CIF has been generated from an entry in the Cambridge 
# Structural Database, then it will include bibliographic, chemical, 
# crystal, experimental, refinement or atomic coordinate data resulting 
# from the CCDC's data processing and validation procedures.
#
#######################################################################

data_ZUWNEK01
_symmetry_cell_setting           triclinic
_symmetry_space_group_name_H-M   'P -1'
_symmetry_Int_Tables_number      2
_space_group_name_Hall           '-P 1'
loop_
_symmetry_equiv_pos_site_id
_symmetry_equiv_pos_as_xyz
1 x,y,z
2 -x,-y,-z
_cell_length_a                   5.826(3)
_cell_length_b                   10.189(5)
_cell_length_c                   10.914(5)
_cell_angle_alpha                89.499(6)
_cell_angle_beta                 85.254(5)
_cell_angle_gamma                78.892(6)
_cell_volume                     633.533
loop_
_atom_site_label
_atom_site_type_symbol
_atom_site_fract_x
_atom_site_fract_y
_atom_site_fract_z
Cu1 Cu -0.97229(9) -0.75998(5) -0.07933(4)
V1 V -0.73386(11) -0.59607(7) 0.11921(6)
V2 V -1.18541(12) -0.72823(7) 0.20427(6)
O1 O -0.7233(5) -0.7001(3) 0.0000(3)
O2 O -1.1026(5) -0.8208(3) 0.0757(3)
O3 O -0.9739(5) -0.6258(3) 0.2232(3)
N1 N -1.1514(7) -0.8627(4) -0.1766(3)
O4 O -0.4733(5) -0.6283(3) 0.1980(3)
N2 N -0.8395(6) -0.7225(4) -0.2466(3)
O5 O -1.2161(6) -0.5594(3) -0.0752(3)
O6 O -1.1931(6) -0.8284(4) 0.3197(3)
C1 C -0.9443(8) -0.7678(5) -0.3401(4)
C2 C -0.6772(8) -0.6479(5) -0.2717(4)
C3 C -1.3925(9) -0.9908(5) -0.3289(5)
H1 H -1.4759 -1.0334 -0.3799
C4 C -0.8856(9) -0.7386(6) -0.4603(4)
H2 H -0.9602 -0.7689 -0.5234
C5 C -1.4253(10) -1.0028(5) -0.2032(5)
H3 H -1.5284 -1.0549 -0.1689
C6 C -1.1169(8) -0.8517(4) -0.2995(4)
C7 C -1.3044(9) -0.9371(5) -0.1290(4)
H4 H -1.3286 -0.9441 -0.0441
C8 C -1.2346(8) -0.9149(5) -0.3794(4)
H5 H -1.2086 -0.9068 -0.4641
C9 C -0.7120(10) -0.6626(6) -0.4862(4)
H6 H -0.6680 -0.6428 -0.5671
C10 C -0.6077(10) -0.6177(6) -0.3914(5)
H7 H -0.4913 -0.5673 -0.4071
H8 H -0.607(7) -0.620(4) -0.205(4)
V1A V -1.26614(11) -0.40393(7) -0.11921(6)
V2_2 V -0.18541(12) -0.72823(7) 0.20427(6)
O4_2 O -1.4733(5) -0.6283(3) 0.1980(3)
O5A O -0.7839(6) -0.4406(3) 0.0752(3)
loop_
_geom_bond_atom_site_label_1
_geom_bond_atom_site_label_2
_geom_bond_site_symmetry_1
_geom_bond_site_symmetry_2
Cu1 O1 1_555 1_555
V1 O1 1_555 1_555
V2 O2 1_555 1_555
O2 Cu1 1_555 1_555
O3 V1 1_555 1_555
N1 Cu1 1_555 1_555
O4 V1 1_555 1_555
N2 Cu1 1_555 1_555
O5 Cu1 1_555 1_555
O6 V2 1_555 1_555
C1 N2 1_555 1_555
C2 N2 1_555 1_555
C3 H1 1_555 1_555
C4 C1 1_555 1_555
H2 C4 1_555 1_555
C5 C3 1_555 1_555
H3 C5 1_555 1_555
C6 N1 1_555 1_555
C7 N1 1_555 1_555
H4 C7 1_555 1_555
C8 C3 1_555 1_555
H5 C8 1_555 1_555
C9 C4 1_555 1_555
H6 C9 1_555 1_555
C10 C2 1_555 1_555
H7 C10 1_555 1_555
H8 C2 1_555 1_555
V1A O5 1_555 1_555
V2_2 O4 1_555 1_555
O4_2 V2 1_555 1_555
O5A V1 1_555 1_555
V2 O3 1_555 1_555
C1 C6 1_555 1_555
C5 C7 1_555 1_555
C6 C8 1_555 1_555
C9 C10 1_555 1_555

#END
