
#######################################################################
#
#                 Cambridge Crystallographic Data Centre
#                                CCDC 
#
#######################################################################
#
# If this CIF has been generated from an entry in the Cambridge 
# Structural Database, then it will include bibliographic, chemical, 
# crystal, experimental, refinement or atomic coordinate data resulting 
# from the CCDC's data processing and validation procedures.
#
#######################################################################

data_ZUWNEK
_symmetry_cell_setting           triclinic
_symmetry_space_group_name_H-M   'P -1'
_symmetry_Int_Tables_number      2
_space_group_name_Hall           '-P 1'
loop_
_symmetry_equiv_pos_site_id
_symmetry_equiv_pos_as_xyz
1 x,y,z
2 -x,-y,-z
_cell_length_a                   10.114(2)
_cell_length_b                   10.839(2)
_cell_length_c                   5.810(3)
_cell_angle_alpha                94.75(3)
_cell_angle_beta                 101.16(3)
_cell_angle_gamma                89.81(2)
_cell_volume                     622.682
loop_
_atom_site_label
_atom_site_type_symbol
_atom_site_fract_x
_atom_site_fract_y
_atom_site_fract_z
Cu1 Cu 0.26175(7) 0.07956(6) 0.5282(1)
V1 V 0.2277(1) -0.20496(9) 0.3148(2)
V2 V 0.0959(1) -0.11930(9) 0.7665(2)
O1 O 0.3216(4) -0.0771(4) 0.3981(7)
O2 O 0.1272(4) -0.1992(4) 0.0268(7)
O3 O 0.3280(5) -0.3212(4) 0.3056(8)
O4 O 0.1245(4) -0.2249(4) 0.5273(7)
O5 O 0.2022(4) -0.0007(4) 0.7789(7)
O6 O 0.0606(4) 0.0743(5) 0.2862(8)
N1 N 0.3649(5) 0.1779(4) 0.3473(9)
N2 N 0.2247(5) 0.2474(4) 0.6608(9)
C1 C 0.3531(6) 0.3008(5) 0.384(1)
C2 C 0.4162(6) 0.3815(6) 0.264(1)
C3 C 0.4933(7) 0.3332(6) 0.109(1)
C4 C 0.5042(7) 0.2073(6) 0.072(1)
C5 C 0.4393(6) 0.1315(6) 0.196(1)
C6 C 0.2700(6) 0.3411(5) 0.557(1)
C7 C 0.2400(7) 0.4625(6) 0.615(1)
C8 C 0.1643(7) 0.4884(6) 0.788(1)
C9 C 0.1193(7) 0.3923(6) 0.894(1)
C10 C 0.1493(6) 0.2724(6) 0.823(1)
Cu1A Cu -0.26175(7) -0.07956(6) 0.4718(1)
O6A O -0.0606(4) -0.0743(5) 0.7138(8)
O2_2 O 0.1272(4) -0.1992(4) 1.0268(7)
V1_2 V 0.2277(1) -0.20496(9) 1.3148(2)
loop_
_geom_bond_atom_site_label_1
_geom_bond_atom_site_label_2
_geom_bond_site_symmetry_1
_geom_bond_site_symmetry_2
Cu1 O1 1_555 1_555
V1 O1 1_555 1_555
V2 O4 1_555 1_555
O2 V1 1_555 1_555
O3 V1 1_555 1_555
O4 V1 1_555 1_555
O5 Cu1 1_555 1_555
O6 Cu1 1_555 1_555
N1 Cu1 1_555 1_555
N2 Cu1 1_555 1_555
C1 N1 1_555 1_555
C2 C1 1_555 1_555
C3 C2 1_555 1_555
C4 C3 1_555 1_555
C5 N1 1_555 1_555
C6 N2 1_555 1_555
C7 C6 1_555 1_555
C8 C7 1_555 1_555
C9 C8 1_555 1_555
C10 N2 1_555 1_555
Cu1A O6A 1_555 1_555
O6A V2 1_555 1_555
O2_2 V2 1_555 1_555
V1_2 O2_2 1_555 1_555
V2 O5 1_555 1_555
C1 C6 1_555 1_555
C4 C5 1_555 1_555
C9 C10 1_555 1_555

#END
