
#######################################################################
#
#                 Cambridge Crystallographic Data Centre
#                                CCDC 
#
#######################################################################
#
# If this CIF has been generated from an entry in the Cambridge 
# Structural Database, then it will include bibliographic, chemical, 
# crystal, experimental, refinement or atomic coordinate data resulting 
# from the CCDC's data processing and validation procedures.
#
#######################################################################

data_ZUZWAS
_symmetry_cell_setting           triclinic
_symmetry_space_group_name_H-M   'P -1'
_symmetry_Int_Tables_number      2
_space_group_name_Hall           '-P 1'
loop_
_symmetry_equiv_pos_site_id
_symmetry_equiv_pos_as_xyz
1 x,y,z
2 -x,-y,-z
_cell_length_a                   10.882(3)
_cell_length_b                   13.295(4)
_cell_length_c                   10.824(2)
_cell_angle_alpha                104.89(2)
_cell_angle_beta                 104.95(2)
_cell_angle_gamma                68.68(2)
_cell_volume                     1386.07
loop_
_atom_site_label
_atom_site_type_symbol
_atom_site_fract_x
_atom_site_fract_y
_atom_site_fract_z
Cd1 Cd 0.00000 0.00000 0.00000
Ag1 Ag 0.00000 0.00000 0.50000
Ag2 Ag 0.50000 0.00000 0.00000
N1 N 0.0049(10) 0.0436(8) 0.2267(8)
C1 C 0.0051(11) 0.0312(9) 0.3246(10)
N2 N 0.2329(8) -0.0335(7) 0.0273(9)
C2 C 0.3292(9) -0.0242(8) 0.0187(9)
N7 N 0.0398(8) -0.1790(7) 0.0095(7)
C7 C -0.0213(10) -0.2079(8) 0.0815(10)
C8 C 0.0170(13) -0.3128(10) 0.1045(12)
C9 C 0.1234(14) -0.3946(9) 0.0482(13)
C10 C 0.1852(12) -0.3658(9) -0.0314(11)
C11 C 0.1400(11) -0.2593(9) -0.0466(9)
N8 N 0.1652(14) -0.5009(9) 0.0691(13)
H1 H -0.10420 -0.14747 0.12390
H2 H -0.03379 -0.33184 0.16473
H3 H 0.26499 -0.42746 -0.07713
H4 H 0.18394 -0.23336 -0.10661
H5 H 0.26305 -0.53544 0.06596
H6 H 0.11339 -0.54387 0.00011
C1A C -0.0051(11) -0.0312(9) 0.6754(10)
N1A N -0.0049(10) -0.0436(8) 0.7733(8)
Cd1_2 Cd 0.00000 0.00000 1.00000
N1A_2 N -0.0049(10) -0.0436(8) -0.2267(8)
C2A C 0.6708(9) 0.0242(8) -0.0187(9)
N2A N 0.7671(8) 0.0335(7) -0.0273(9)
Cd1_3 Cd 1.00000 0.00000 0.00000
N2A_2 N -0.2329(8) 0.0335(7) -0.0273(9)
N7A N -0.0398(8) 0.1790(7) -0.0095(7)
C7A C 0.0213(10) 0.2079(8) -0.0815(10)
C8A C -0.0170(13) 0.3128(10) -0.1045(12)
C9A C -0.1234(14) 0.3946(9) -0.0482(13)
C10A C -0.1852(12) 0.3658(9) 0.0314(11)
C11A C -0.1400(11) 0.2593(9) 0.0466(9)
H4A H -0.18394 0.23336 0.10661
H3A H -0.26499 0.42746 0.07713
N8A N -0.1652(14) 0.5009(9) -0.0691(13)
H5A H -0.26305 0.53544 -0.06596
H6A H -0.11339 0.54387 -0.00011
H2A H 0.03379 0.33184 -0.16473
H1A H 0.10420 0.14747 -0.12390
Cd2 Cd 0.36360(8) 0.21764(6) -0.34838(7)
Ag3 Ag 0.34616(10) -0.16797(8) -0.28340(10)
Ag4 Ag 0.34605(10) 0.22103(8) 0.14386(8)
N3 N 0.3171(10) 0.0624(8) -0.3506(9)
C3 C 0.3225(11) -0.0175(9) -0.3246(11)
N4 N 0.3990(11) -0.4185(9) -0.2730(12)
C4 C 0.3790(13) -0.3274(10) -0.2685(12)
N5 N 0.3664(10) 0.2685(8) -0.1250(8)
C5 C 0.3612(11) 0.2546(9) -0.0275(11)
N6 N 0.3399(10) 0.1878(9) 0.4235(9)
C6 C 0.3346(12) 0.1976(10) 0.3205(11)
N9 N 0.1478(8) 0.3323(7) -0.3776(8)
C12 C 0.1059(11) 0.4387(9) -0.3236(10)
C13 C -0.0263(11) 0.5058(9) -0.3389(10)
C14 C -0.1264(12) 0.4586(10) -0.4166(11)
C15 C -0.0831(12) 0.3450(10) -0.4744(12)
C16 C 0.0531(12) 0.2875(10) -0.4525(11)
N10 N -0.2615(10) 0.5189(9) -0.4378(10)
N11 N 0.5930(8) 0.1277(7) -0.3271(9)
C17 C 0.6660(13) 0.2072(13) -0.3039(18)
C18 C 0.6070(13) 0.3102(14) -0.315(2)
O1 O 0.4674(7) 0.3560(6) -0.3319(8)
H7 H 0.17754 0.47796 -0.26300
H8 H -0.05122 0.59120 -0.29264
H9 H -0.15567 0.30617 -0.53349
H10 H 0.08901 0.20187 -0.49606
H11 H -0.31632 0.46955 -0.45048
H12 H -0.28383 0.55189 -0.51726
H13 H 0.61191 0.07360 -0.40874
H14 H 0.62321 0.08796 -0.25220
H15 H 0.72088 0.21353 -0.20156
H16 H 0.73520 0.17968 -0.37052
H17 H 0.64137 0.36170 -0.22780
H18 H 0.63104 0.32490 -0.39783
H19 H 0.44228 0.43281 -0.33359
N6_2 N 0.3399(10) 0.1878(9) -0.5765(9)
Cd2_2 Cd 0.36360(8) 0.21764(6) 0.65162(7)
loop_
_geom_bond_atom_site_label_1
_geom_bond_atom_site_label_2
_geom_bond_site_symmetry_1
_geom_bond_site_symmetry_2
Cd1 N1 1_555 1_555
Cd2 N3 1_555 1_555
Ag1 C1 1_555 1_555
Ag2 C2 1_555 1_555
Ag3 C3 1_555 1_555
Ag4 C5 1_555 1_555
N1 C1 1_555 1_555
N2 Cd1 1_555 1_555
C2 N2 1_555 1_555
N3 C3 1_555 1_555
N4 C4 1_555 1_555
C4 Ag3 1_555 1_555
N5 Cd2 1_555 1_555
C5 N5 1_555 1_555
N6 C6 1_555 1_555
C6 Ag4 1_555 1_555
N7 Cd1 1_555 1_555
C7 N7 1_555 1_555
C8 C7 1_555 1_555
C9 C8 1_555 1_555
C10 C9 1_555 1_555
C11 N7 1_555 1_555
N8 C9 1_555 1_555
N9 Cd2 1_555 1_555
C12 N9 1_555 1_555
C13 C12 1_555 1_555
C14 C13 1_555 1_555
C15 C14 1_555 1_555
C16 N9 1_555 1_555
N10 C14 1_555 1_555
N11 Cd2 1_555 1_555
C17 N11 1_555 1_555
C18 C17 1_555 1_555
O1 Cd2 1_555 1_555
H1 C7 1_555 1_555
H2 C8 1_555 1_555
H3 C10 1_555 1_555
H4 C11 1_555 1_555
H5 N8 1_555 1_555
H6 N8 1_555 1_555
H7 C12 1_555 1_555
H8 C13 1_555 1_555
H9 C15 1_555 1_555
H10 C16 1_555 1_555
H11 N10 1_555 1_555
H12 N10 1_555 1_555
H13 N11 1_555 1_555
H14 N11 1_555 1_555
H15 C17 1_555 1_555
H16 C17 1_555 1_555
H17 C18 1_555 1_555
H18 C18 1_555 1_555
H19 O1 1_555 1_555
C1A Ag1 1_555 1_555
N1A C1A 1_555 1_555
Cd1_2 N1A 1_555 1_555
N1A_2 Cd1 1_555 1_555
C2A Ag2 1_555 1_555
N2A C2A 1_555 1_555
Cd1_3 N2A 1_555 1_555
N2A_2 Cd1 1_555 1_555
N7A Cd1 1_555 1_555
C7A N7A 1_555 1_555
C8A C7A 1_555 1_555
C9A C8A 1_555 1_555
C10A C9A 1_555 1_555
C11A N7A 1_555 1_555
H4A C11A 1_555 1_555
H3A C10A 1_555 1_555
N8A C9A 1_555 1_555
H5A N8A 1_555 1_555
H6A N8A 1_555 1_555
H2A C8A 1_555 1_555
H1A C7A 1_555 1_555
N6_2 Cd2 1_555 1_555
Cd2_2 N6 1_555 1_555
C10 C11 1_555 1_555
C15 C16 1_555 1_555
C18 O1 1_555 1_555
C10A C11A 1_555 1_555

#END
