
#######################################################################
#
#                 Cambridge Crystallographic Data Centre
#                                CCDC 
#
#######################################################################
#
# If this CIF has been generated from an entry in the Cambridge 
# Structural Database, then it will include bibliographic, chemical, 
# crystal, experimental, refinement or atomic coordinate data resulting 
# from the CCDC's data processing and validation procedures.
#
#######################################################################

data_ZZZBBV01
_symmetry_cell_setting           monoclinic
_symmetry_space_group_name_H-M   'C 2/m'
_symmetry_Int_Tables_number      12
_space_group_name_Hall           '-C 2y'
loop_
_symmetry_equiv_pos_site_id
_symmetry_equiv_pos_as_xyz
1 x,y,z
2 -x,y,-z
3 1/2+x,1/2+y,z
4 1/2-x,1/2+y,-z
5 -x,-y,-z
6 x,-y,z
7 1/2-x,1/2-y,-z
8 1/2+x,1/2-y,z
_cell_length_a                   15.526(3)
_cell_length_b                   7.392(2)
_cell_length_c                   7.067(2)
_cell_angle_alpha                90
_cell_angle_beta                 101.26(2)
_cell_angle_gamma                90
_cell_volume                     795.455
loop_
_atom_site_label
_atom_site_type_symbol
_atom_site_fract_x
_atom_site_fract_y
_atom_site_fract_z
Fe1 Fe 0.0000 0.0000 0.0000
Ni1 Ni 0.0000 0.5000 0.5000
N1 N 0.0224(3) 0.2075(6) 0.2183(6)
C1 C 0.0163(3) 0.3206(7) 0.3257(7)
N2 N 0.1403(4) 0.0000 -0.019(1)
C2 C 0.2003(6) 0.0000 0.148(1)
C3 C 0.2924(7) 0.0000 0.151(2)
C4 C 0.3191(7) 0.0000 -0.026(2)
C5 C 0.2579(7) 0.0000 -0.193(2)
C6 C 0.1676(6) 0.0000 -0.190(1)
C1A C -0.0163(3) 0.3206(7) 0.6743(7)
N1A N -0.0224(3) 0.2075(6) 0.7817(6)
Fe1A Fe 0.0000 0.0000 1.0000
C1D C -0.0163(3) 0.6794(7) 0.6743(7)
N1D N -0.0224(3) 0.7925(6) 0.7817(6)
Fe1D Fe 0.0000 1.0000 1.0000
C1E C 0.0163(3) 0.6794(7) 0.3257(7)
N1E N 0.0224(3) 0.7925(6) 0.2183(6)
Fe1E Fe 0.0000 1.0000 0.0000
N1A_2 N -0.0224(3) 0.2075(6) -0.2183(6)
N1D_2 N -0.0224(3) -0.2075(6) -0.2183(6)
N1E_2 N 0.0224(3) -0.2075(6) 0.2183(6)
N2A N -0.1403(4) 0.0000 0.019(1)
C2A C -0.2003(6) 0.0000 -0.148(1)
C3A C -0.2924(7) 0.0000 -0.151(2)
C4A C -0.3191(7) 0.0000 0.026(2)
C5A C -0.2579(7) 0.0000 0.193(2)
C6A C -0.1676(6) 0.0000 0.190(1)
loop_
_geom_bond_atom_site_label_1
_geom_bond_atom_site_label_2
_geom_bond_site_symmetry_1
_geom_bond_site_symmetry_2
Fe1 N1 1_555 1_555
Ni1 C1 1_555 1_555
N1 C1 1_555 1_555
N2 Fe1 1_555 1_555
C2 N2 1_555 1_555
C3 C2 1_555 1_555
C4 C3 1_555 1_555
C5 C4 1_555 1_555
C6 N2 1_555 1_555
C1A Ni1 1_555 1_555
N1A C1A 1_555 1_555
Fe1A N1A 1_555 1_555
C1D Ni1 1_555 1_555
N1D C1D 1_555 1_555
Fe1D N1D 1_555 1_555
C1E Ni1 1_555 1_555
N1E C1E 1_555 1_555
Fe1E N1E 1_555 1_555
N1A_2 Fe1 1_555 1_555
N1D_2 Fe1 1_555 1_555
N1E_2 Fe1 1_555 1_555
N2A Fe1 1_555 1_555
C2A N2A 1_555 1_555
C3A C2A 1_555 1_555
C4A C3A 1_555 1_555
C5A C4A 1_555 1_555
C6A N2A 1_555 1_555
C5 C6 1_555 1_555
C5A C6A 1_555 1_555

#END
