
#######################################################################
#
#                 Cambridge Crystallographic Data Centre
#                                CCDC 
#
#######################################################################
#
# If this CIF has been generated from an entry in the Cambridge 
# Structural Database, then it will include bibliographic, chemical, 
# crystal, experimental, refinement or atomic coordinate data resulting 
# from the CCDC's data processing and validation procedures.
#
#######################################################################

data_ZZZBCG01
_symmetry_cell_setting           monoclinic
_symmetry_space_group_name_H-M   'C 2/m'
_symmetry_Int_Tables_number      12
_space_group_name_Hall           '-C 2y'
loop_
_symmetry_equiv_pos_site_id
_symmetry_equiv_pos_as_xyz
1 x,y,z
2 1/2+x,1/2+y,z
3 -x,y,-z
4 1/2-x,1/2+y,-z
5 -x,-y,-z
6 1/2-x,1/2-y,-z
7 x,-y,z
8 1/2+x,1/2-y,z
_cell_length_a                   15.684(8)
_cell_length_b                   7.459(3)
_cell_length_c                   7.067(4)
_cell_angle_alpha                90
_cell_angle_beta                 104.93(2)
_cell_angle_gamma                90
_cell_volume                     798.837
loop_
_atom_site_label
_atom_site_type_symbol
_atom_site_fract_x
_atom_site_fract_y
_atom_site_fract_z
Mn1 Mn 0.0000 0.0000 0.0000
Ni1 Ni 0.0000 0.5000 0.5000
N1 N 0.0323(4) 0.2105(7) 0.2294(8)
C1 C 0.0229(4) 0.3228(8) 0.3326(8)
N2 N 0.1411(5) 0.0000 -0.0275(13)
C2 C 0.2060(8) 0.0000 0.1344(16)
C3 C 0.2948(8) 0.0000 0.132(2)
C4 C 0.3182(8) 0.0000 -0.037(2)
C5 C 0.2516(9) 0.0000 -0.207(2)
C6 C 0.1642(8) 0.0000 -0.1967(17)
H1 H 0.1918 0.0000 0.2573
H2 H 0.3393 0.0000 0.2517
H3 H 0.3785 0.0000 -0.0399
H4 H 0.2651 0.0000 -0.3304
H5 H 0.1188 0.0000 -0.3155
Mn1_2 Mn 0.0000 1.0000 0.0000
Mn1_3 Mn 0.0000 1.0000 1.0000
Mn1_4 Mn 0.0000 0.0000 1.0000
N1F N 0.0323(4) -0.2105(7) 0.2294(8)
N1D N -0.0323(4) -0.2105(7) -0.2294(8)
N1B N -0.0323(4) 0.2105(7) -0.2294(8)
N1F_2 N 0.0323(4) 0.7895(7) 0.2294(8)
N1D_2 N -0.0323(4) 0.7895(7) 0.7706(8)
N1B_2 N -0.0323(4) 0.2105(7) 0.7706(8)
C1F C 0.0229(4) 0.6772(8) 0.3326(8)
C1D C -0.0229(4) 0.6772(8) 0.6674(8)
C1B C -0.0229(4) 0.3228(8) 0.6674(8)
N2D N -0.1411(5) 0.0000 0.0275(13)
C2D C -0.2060(8) 0.0000 -0.1344(16)
C3D C -0.2948(8) 0.0000 -0.132(2)
C4D C -0.3182(8) 0.0000 0.037(2)
C5D C -0.2516(9) 0.0000 0.207(2)
C6D C -0.1642(8) 0.0000 0.1967(17)
H1D H -0.1918 0.0000 -0.2573
H2D H -0.3393 0.0000 -0.2517
H3D H -0.3785 0.0000 0.0399
H4D H -0.2651 0.0000 0.3304
H5D H -0.1188 0.0000 0.3155
loop_
_geom_bond_atom_site_label_1
_geom_bond_atom_site_label_2
_geom_bond_site_symmetry_1
_geom_bond_site_symmetry_2
Mn1 N1 1_555 1_555
Ni1 C1 1_555 1_555
N1 C1 1_555 1_555
N2 Mn1 1_555 1_555
C2 N2 1_555 1_555
C3 C2 1_555 1_555
C4 C3 1_555 1_555
C5 C4 1_555 1_555
C6 N2 1_555 1_555
H1 C2 1_555 1_555
H2 C3 1_555 1_555
H3 C4 1_555 1_555
H4 C5 1_555 1_555
H5 C6 1_555 1_555
Mn1_2 N1F_2 1_555 1_555
Mn1_3 N1D_2 1_555 1_555
Mn1_4 N1B_2 1_555 1_555
N1F Mn1 1_555 1_555
N1D Mn1 1_555 1_555
N1B Mn1 1_555 1_555
N1F_2 C1F 1_555 1_555
N1D_2 C1D 1_555 1_555
N1B_2 C1B 1_555 1_555
C1F Ni1 1_555 1_555
C1D Ni1 1_555 1_555
C1B Ni1 1_555 1_555
N2D Mn1 1_555 1_555
C2D N2D 1_555 1_555
C3D C2D 1_555 1_555
C4D C3D 1_555 1_555
C5D C4D 1_555 1_555
C6D N2D 1_555 1_555
H1D C2D 1_555 1_555
H2D C3D 1_555 1_555
H3D C4D 1_555 1_555
H4D C5D 1_555 1_555
H5D C6D 1_555 1_555
C5 C6 1_555 1_555
C5D C6D 1_555 1_555

#END
