
#######################################################################
#
#                 Cambridge Crystallographic Data Centre
#                                CCDC 
#
#######################################################################
#
# If this CIF has been generated from an entry in the Cambridge 
# Structural Database, then it will include bibliographic, chemical, 
# crystal, experimental, refinement or atomic coordinate data resulting 
# from the CCDC's data processing and validation procedures.
#
#######################################################################

data_ZZZBQV02
_symmetry_cell_setting           monoclinic
_symmetry_space_group_name_H-M   'P 21/c'
_symmetry_Int_Tables_number      14
_space_group_name_Hall           '-P 2ybc'
loop_
_symmetry_equiv_pos_site_id
_symmetry_equiv_pos_as_xyz
1 x,y,z
2 -x,1/2+y,1/2-z
3 -x,-y,-z
4 x,1/2-y,1/2+z
_cell_length_a                   10.810(1)
_cell_length_b                   4.700(1)
_cell_length_c                   19.400(3)
_cell_angle_alpha                90
_cell_angle_beta                 101.43(1)
_cell_angle_gamma                90
_cell_volume                     966.108
loop_
_atom_site_label
_atom_site_type_symbol
_atom_site_fract_x
_atom_site_fract_y
_atom_site_fract_z
O1 O 0.3901(2) 0.0830(5) 0.3359(1)
C1 C 0.2924(3) 0.1795(7) 0.3520(2)
C2 C 0.2113(3) 0.3987(7) 0.3136(2)
N1 N 0.2460(3) 0.5449(7) 0.2549(1)
O2 O 0.3492(3) 0.4984(6) 0.2398(1)
O3 O 0.1744(3) 0.7232(8) 0.2232(1)
C3 C 0.1014(3) 0.4903(7) 0.3325(2)
C4 C 0.0642(3) 0.3790(7) 0.3905(2)
N2 N -0.0526(2) 0.4742(6) 0.4083(1)
O4 O -0.1029(2) 0.6903(6) 0.3797(1)
O5 O -0.0983(2) 0.3365(6) 0.4509(1)
C5 C 0.1393(3) 0.1838(7) 0.4335(2)
C6 C 0.2478(3) 0.0920(6) 0.4145(2)
N3 N 0.3276(2) -0.0949(6) 0.4645(2)
O6 O 0.3809(3) -0.2935(6) 0.4431(2)
O7 O 0.3366(3) -0.0413(6) 0.5270(1)
Cs1 Cs 0.59872(2) 0.54140(5) 0.36091(1)
H1 H 0.047(3) 0.633(8) 0.302(2)
H2 H 0.121(3) 0.116(8) 0.474(2)
Cs1_2 Cs 0.59872(2) -0.45860(5) 0.36091(1)
Cs1A Cs 0.40128(2) 0.04140(5) 0.13909(1)
Cs1A_2 Cs 0.40128(2) 1.04140(5) 0.13909(1)
Cs1_3 Cs -0.40128(2) 0.54140(5) 0.36091(1)
Cs1B Cs 0.40128(2) -0.54140(5) 0.63909(1)
Cs1B_2 Cs 0.40128(2) 0.45860(5) 0.63909(1)
O1_2 O 0.3901(2) 1.0830(5) 0.3359(1)
O2A O 0.6508(3) -0.0016(6) 0.2602(1)
O2A_2 O 0.6508(3) 0.9984(6) 0.2602(1)
O4_2 O 0.8971(2) 0.6903(6) 0.3797(1)
O6_2 O 0.3809(3) 0.7065(6) 0.4431(2)
O7B O 0.6634(3) 0.0413(6) 0.4730(1)
O7B_2 O 0.6634(3) 1.0413(6) 0.4730(1)
loop_
_geom_bond_atom_site_label_1
_geom_bond_atom_site_label_2
_geom_bond_site_symmetry_1
_geom_bond_site_symmetry_2
O1 C1 1_555 1_555
C1 C2 1_555 1_555
C2 N1 1_555 1_555
N1 O2 1_555 1_555
O2 Cs1 1_555 1_555
O3 N1 1_555 1_555
C3 C2 1_555 1_555
C4 C3 1_555 1_555
N2 C4 1_555 1_555
O4 N2 1_555 1_555
O5 N2 1_555 1_555
C5 C4 1_555 1_555
C6 C1 1_555 1_555
N3 C6 1_555 1_555
O6 N3 1_555 1_555
O7 N3 1_555 1_555
Cs1 O1 1_555 1_555
H1 C3 1_555 1_555
H2 C5 1_555 1_555
Cs1_2 O1 1_555 1_555
Cs1A O2 1_555 1_555
Cs1A_2 O2 1_555 1_555
Cs1_3 O4 1_555 1_555
Cs1B O7 1_555 1_555
Cs1B_2 O7 1_555 1_555
O1_2 Cs1 1_555 1_555
O2A Cs1 1_555 1_555
O2A_2 Cs1 1_555 1_555
O4_2 Cs1 1_555 1_555
O6_2 Cs1 1_555 1_555
O7B Cs1 1_555 1_555
O7B_2 Cs1 1_555 1_555
C5 C6 1_555 1_555
O6 Cs1_2 1_555 1_555
Cs1_2 O2A 1_555 1_555
Cs1_2 O7B 1_555 1_555
Cs1A O2A 1_555 1_555
Cs1A_2 O2A_2 1_555 1_555

#END
