
#######################################################################
#
#                 Cambridge Crystallographic Data Centre
#                                CCDC 
#
#######################################################################
#
# If this CIF has been generated from an entry in the Cambridge 
# Structural Database, then it will include bibliographic, chemical, 
# crystal, experimental, refinement or atomic coordinate data resulting 
# from the CCDC's data processing and validation procedures.
#
#######################################################################

data_ZZZBOV10
_symmetry_cell_setting           orthorhombic
_symmetry_space_group_name_H-M   'A b a 2'
_symmetry_Int_Tables_number      41
_space_group_name_Hall           'A 2 -2ab'
loop_
_symmetry_equiv_pos_site_id
_symmetry_equiv_pos_as_xyz
1 x,y,z
2 x,1/2+y,1/2+z
3 1/2-x,1/2+y,z
4 1/2-x,y,1/2+z
5 1/2+x,1/2-y,z
6 1/2+x,-y,1/2+z
7 -x,-y,z
8 -x,1/2-y,1/2+z
_cell_length_a                   7.801(2)
_cell_length_b                   16.331(2)
_cell_length_c                   9.738(1)
_cell_angle_alpha                90
_cell_angle_beta                 90
_cell_angle_gamma                90
_cell_volume                     1240.6
loop_
_atom_site_label
_atom_site_type_symbol
_atom_site_fract_x
_atom_site_fract_y
_atom_site_fract_z
Co1 Co 0.00000 0.00000 0.00000
S1 S 0.42994 -0.20624 -0.01300
C1 C 0.25790 -0.14950 -0.00100
N1 N 0.13750 -0.10890 0.01400
N2 N 0.19500 0.12040 0.19500
N3 N 0.16800 0.04100 0.16500
C2 C 0.25800 0.00320 0.26000
N4 N 0.15800 0.05330 -0.15300
C3 C 0.29900 0.12700 0.30300
H1 H 0.14200 0.17000 0.14100
H2 H 0.26300 -0.05500 0.26900
H3 H 0.33600 0.17700 0.34200
N1F N -0.13750 0.10890 0.01400
N3F N -0.16800 -0.04100 0.16500
N4F N -0.15800 -0.05330 -0.15300
N4C N 0.34200 0.05330 0.34700
C2C C 0.24200 0.00320 -0.24000
C3C C 0.20100 0.12700 -0.19700
C1F C -0.25790 0.14950 -0.00100
N2F N -0.19500 -0.12040 0.19500
C2F C -0.25800 -0.00320 0.26000
C2E C -0.24200 -0.00320 -0.24000
C3E C -0.20100 -0.12700 -0.19700
Co1C Co 0.50000 0.00000 0.50000
N3C N 0.33200 0.04100 -0.33500
H2C H 0.23700 -0.05500 -0.23100
N2C N 0.30500 0.12040 -0.30500
H3C H 0.16400 0.17700 -0.15800
S1F S -0.42994 0.20624 -0.01300
C3F C -0.29900 -0.12700 0.30300
H1F H -0.14200 -0.17000 0.14100
N4E N -0.34200 -0.05330 0.34700
H2F H -0.26300 0.05500 0.26900
N3E N -0.33200 -0.04100 -0.33500
H2E H -0.23700 0.05500 -0.23100
N2E N -0.30500 -0.12040 -0.30500
H3E H -0.16400 -0.17700 -0.15800
N1C N 0.36250 -0.10890 0.51400
N1E N 0.63750 0.10890 0.51400
N3C_2 N 0.33200 0.04100 0.66500
N3E_2 N 0.66800 -0.04100 0.66500
N4E_2 N 0.65800 -0.05330 0.34700
Co1C_2 Co 0.50000 0.00000 -0.50000
H1C H 0.35800 0.17000 -0.35900
H3F H -0.33600 -0.17700 0.34200
Co1C_3 Co -0.50000 0.00000 0.50000
Co1C_4 Co -0.50000 0.00000 -0.50000
H1E H -0.35800 -0.17000 -0.35900
C1C C 0.24210 -0.14950 0.49900
C1E C 0.75790 0.14950 0.49900
S1C S 0.07006 -0.20624 0.48700
S1E S 0.92994 0.20624 0.48700
loop_
_geom_bond_atom_site_label_1
_geom_bond_atom_site_label_2
_geom_bond_site_symmetry_1
_geom_bond_site_symmetry_2
Co1 N1 1_555 1_555
S1 C1 1_555 1_555
C1 N1 1_555 1_555
N2 N3 1_555 1_555
N3 Co1 1_555 1_555
C2 N3 1_555 1_555
N4 Co1 1_555 1_555
C3 N2 1_555 1_555
H1 N2 1_555 1_555
H2 C2 1_555 1_555
H3 C3 1_555 1_555
N1F Co1 1_555 1_555
N3F Co1 1_555 1_555
N4F Co1 1_555 1_555
N4C C2 1_555 1_555
C2C N4 1_555 1_555
C3C N4 1_555 1_555
C1F N1F 1_555 1_555
N2F N3F 1_555 1_555
C2F N3F 1_555 1_555
C2E N4F 1_555 1_555
C3E N4F 1_555 1_555
Co1C N4C 1_555 1_555
N3C C2C 1_555 1_555
H2C C2C 1_555 1_555
N2C C3C 1_555 1_555
H3C C3C 1_555 1_555
S1F C1F 1_555 1_555
C3F N2F 1_555 1_555
H1F N2F 1_555 1_555
N4E C2F 1_555 1_555
H2F C2F 1_555 1_555
N3E C2E 1_555 1_555
H2E C2E 1_555 1_555
N2E C3E 1_555 1_555
H3E C3E 1_555 1_555
N1C Co1C 1_555 1_555
N1E Co1C 1_555 1_555
N3C_2 Co1C 1_555 1_555
N3E_2 Co1C 1_555 1_555
N4E_2 Co1C 1_555 1_555
Co1C_2 N3C 1_555 1_555
H1C N2C 1_555 1_555
H3F C3F 1_555 1_555
Co1C_3 N4E 1_555 1_555
Co1C_4 N3E 1_555 1_555
H1E N2E 1_555 1_555
C1C N1C 1_555 1_555
C1E N1E 1_555 1_555
S1C C1C 1_555 1_555
S1E C1E 1_555 1_555
C3 N4C 1_555 1_555
N3C N2C 1_555 1_555
C3F N4E 1_555 1_555
N3E N2E 1_555 1_555

#END
