
#######################################################################
#
#                 Cambridge Crystallographic Data Centre
#                                CCDC 
#
#######################################################################
#
# If this CIF has been generated from an entry in the Cambridge 
# Structural Database, then it will include bibliographic, chemical, 
# crystal, experimental, refinement or atomic coordinate data resulting 
# from the CCDC's data processing and validation procedures.
#
#######################################################################

data_ZZZCCS10
_symmetry_cell_setting           monoclinic
_symmetry_space_group_name_H-M   'P 21'
_symmetry_Int_Tables_number      4
_space_group_name_Hall           'P 2yb'
loop_
_symmetry_equiv_pos_site_id
_symmetry_equiv_pos_as_xyz
1 x,y,z
2 -x,1/2+y,-z
_cell_length_a                   9.395(9)
_cell_length_b                   3.962(2)
_cell_length_c                   8.882(7)
_cell_angle_alpha                90
_cell_angle_beta                 107.71(6)
_cell_angle_gamma                90
_cell_volume                     314.946
loop_
_atom_site_label
_atom_site_type_symbol
_atom_site_fract_x
_atom_site_fract_y
_atom_site_fract_z
Br1 Br 0.3263(1) 0.750 0.3384(1)
Cu1 Cu 0.3930(2) 0.267(2) 0.5181(2)
N1 N 0.290(1) 0.239(9) 0.684(1)
C1 C 0.350(1) 0.325(6) 0.831(2)
C2 C 0.287(2) 0.297(8) 0.950(2)
C3 C 0.151(2) 0.144(4) 0.914(2)
C4 C 0.087(2) 0.026(5) 0.769(2)
C5 C 0.155(2) 0.069(4) 0.649(2)
H1 H 0.447 0.428 0.859
H2 H 0.337 0.378 1.055
H3 H 0.107 0.119 0.999
H4 H -0.004 -0.086 0.754
H5 H 0.107 -0.017 0.546
Cu1_2 Cu 0.3930(2) 1.267(2) 0.5181(2)
Cu1A Cu 0.6070(2) 0.767(2) 0.4819(2)
Br1_2 Br 0.3263(1) -0.250 0.3384(1)
Br1A Br 0.6737(1) 0.250 0.6616(1)
Br1A_2 Br 0.6737(1) 1.250 0.6616(1)
N1A N 0.710(1) 0.739(9) 0.316(1)
Cu1A_2 Cu 0.6070(2) -0.233(2) 0.4819(2)
C1A C 0.650(1) 0.825(6) 0.169(2)
C5A C 0.845(2) 0.569(4) 0.351(2)
C2A C 0.713(2) 0.797(8) 0.050(2)
H1A H 0.553 0.928 0.141
C4A C 0.913(2) 0.526(5) 0.231(2)
H5A H 0.893 0.483 0.454
C3A C 0.849(2) 0.644(4) 0.086(2)
H2A H 0.663 0.878 -0.055
H4A H 1.004 0.414 0.246
H3A H 0.893 0.619 0.001
loop_
_geom_bond_atom_site_label_1
_geom_bond_atom_site_label_2
_geom_bond_site_symmetry_1
_geom_bond_site_symmetry_2
Br1 Cu1 1_555 1_555
Cu1 N1 1_555 1_555
N1 C1 1_555 1_555
C1 C2 1_555 1_555
C2 C3 1_555 1_555
C3 C4 1_555 1_555
C4 C5 1_555 1_555
C5 N1 1_555 1_555
H1 C1 1_555 1_555
H2 C2 1_555 1_555
H3 C3 1_555 1_555
H4 C4 1_555 1_555
H5 C5 1_555 1_555
Cu1_2 Br1 1_555 1_555
Cu1A Br1 1_555 1_555
Br1_2 Cu1 1_555 1_555
Br1A Cu1 1_555 1_555
Br1A_2 Cu1A 1_555 1_555
N1A Cu1A 1_555 1_555
Cu1A_2 Br1A 1_555 1_555
C1A N1A 1_555 1_555
C5A N1A 1_555 1_555
C2A C1A 1_555 1_555
H1A C1A 1_555 1_555
C4A C5A 1_555 1_555
H5A C5A 1_555 1_555
C3A C2A 1_555 1_555
H2A C2A 1_555 1_555
H4A C4A 1_555 1_555
H3A C3A 1_555 1_555
Cu1A Br1A 1_555 1_555
C4A C3A 1_555 1_555

#END
