
#######################################################################
#
#                 Cambridge Crystallographic Data Centre
#                                CCDC 
#
#######################################################################
#
# If this CIF has been generated from an entry in the Cambridge 
# Structural Database, then it will include bibliographic, chemical, 
# crystal, experimental, refinement or atomic coordinate data resulting 
# from the CCDC's data processing and validation procedures.
#
#######################################################################

data_ZZZECK01
_symmetry_cell_setting           monoclinic
_symmetry_space_group_name_H-M   'C 2/m'
_symmetry_Int_Tables_number      12
_space_group_name_Hall           '-C 2y'
loop_
_symmetry_equiv_pos_site_id
_symmetry_equiv_pos_as_xyz
1 x,y,z
2 -x,y,-z
3 1/2+x,1/2+y,z
4 1/2-x,1/2+y,-z
5 -x,-y,-z
6 x,-y,z
7 1/2-x,1/2-y,-z
8 1/2+x,1/2-y,z
_cell_length_a                   9.0953(12)
_cell_length_b                   8.9896(16)
_cell_length_c                   7.9046(13)
_cell_angle_alpha                90
_cell_angle_beta                 92.212(10)
_cell_angle_gamma                90
_cell_volume                     645.823
loop_
_atom_site_label
_atom_site_type_symbol
_atom_site_fract_x
_atom_site_fract_y
_atom_site_fract_z
U1 U 0.000 0.000 0.000
C1 C 0.255(2) 0.247(2) 0.099(2)
O1 O 0.174(2) 0.162(2) 0.171(2)
O2 O 0.352(3) 0.333(3) 0.163(2)
U1B U 0.500 0.500 0.000
U1B_2 U -0.500 -0.500 0.000
C1F C 0.245(2) 0.253(2) -0.099(2)
C1B C -0.245(2) -0.253(2) 0.099(2)
C1D C -0.255(2) -0.247(2) -0.099(2)
O1F O 0.326(2) 0.338(2) -0.171(2)
O1B O -0.326(2) -0.338(2) 0.171(2)
O1D O -0.174(2) -0.162(2) -0.171(2)
O1A O -0.174(2) 0.162(2) -0.171(2)
O1E O 0.174(2) -0.162(2) 0.171(2)
O2F O 0.148(3) 0.167(3) -0.163(2)
O2B O -0.148(3) -0.167(3) 0.163(2)
O2D O -0.352(3) -0.333(3) -0.163(2)
O2C O 0.148(3) -0.167(3) -0.163(2)
O2G O -0.148(3) 0.167(3) 0.163(2)
O3 O 0.500 0.217(2) 0.500
O4 O 0.284(2) 0.000 0.514(2)
O5 O 0.000 0.500 0.000
O6 O 0.000 0.000 0.500
loop_
_geom_bond_atom_site_label_1
_geom_bond_atom_site_label_2
_geom_bond_site_symmetry_1
_geom_bond_site_symmetry_2
U1 O1 1_555 1_555
C1 O1 1_555 1_555
O2 C1 1_555 1_555
U1B O2 1_555 1_555
U1B_2 O1B 1_555 1_555
C1F C1 1_555 1_555
C1B C1D 1_555 1_555
C1D O1D 1_555 1_555
O1F U1B 1_555 1_555
O1B C1B 1_555 1_555
O1D U1 1_555 1_555
O1A U1 1_555 1_555
O1E U1 1_555 1_555
O2F U1 1_555 1_555
O2B U1 1_555 1_555
O2D U1B_2 1_555 1_555
O2C U1 1_555 1_555
O2G U1 1_555 1_555
C1F O1F 1_555 1_555
C1F O2F 1_555 1_555
C1B O2B 1_555 1_555
C1D O2D 1_555 1_555

#END
