
#######################################################################
#
#                 Cambridge Crystallographic Data Centre
#                                CCDC 
#
#######################################################################
#
# If this CIF has been generated from an entry in the Cambridge 
# Structural Database, then it will include bibliographic, chemical, 
# crystal, experimental, refinement or atomic coordinate data resulting 
# from the CCDC's data processing and validation procedures.
#
#######################################################################

data_ZZZFUI01
_symmetry_cell_setting           monoclinic
_symmetry_space_group_name_H-M   'C 2/c'
_symmetry_Int_Tables_number      15
_space_group_name_Hall           '-C 2yn'
loop_
_symmetry_equiv_pos_site_id
_symmetry_equiv_pos_as_xyz
1 x,y,z
2 1/2+x,1/2+y,z
3 -x,y,1/2-z
4 1/2-x,1/2+y,1/2-z
5 -x,-y,-z
6 1/2-x,1/2-y,-z
7 x,-y,1/2+z
8 1/2+x,1/2-y,1/2+z
_cell_length_a                   10.0748(5)
_cell_length_b                   6.6473(3)
_cell_length_c                   11.2997(6)
_cell_angle_alpha                90
_cell_angle_beta                 107.189(3)
_cell_angle_gamma                90
_cell_volume                     722.944
loop_
_atom_site_label
_atom_site_type_symbol
_atom_site_fract_x
_atom_site_fract_y
_atom_site_fract_z
Cs1 Cs 0.87244(3) 0.30550(4) 0.37345(2)
O1 O 0.6398(3) 0.2709(6) 0.0934(3)
O2 O 0.8242(3) 0.4550(5) 0.0942(3)
O3 O 1.0000 -0.0535(9) 0.2500
H1 H 0.968(6) -0.128(9) 0.291(5)
C1 C 0.7393(5) 0.3148(6) 0.0543(4)
Cs1E Cs 0.62756(3) 0.19450(4) -0.37345(2)
Cs1D Cs 1.12756(3) -0.30550(4) 0.62655(2)
Cs1D_2 Cs 1.12756(3) 0.69450(4) 0.62655(2)
Cs1E_2 Cs 0.62756(3) 0.19450(4) 0.62655(2)
Cs1B Cs 1.12756(3) 0.30550(4) 0.12655(2)
Cs1C Cs 0.62756(3) -0.19450(4) 0.12655(2)
Cs1C_2 Cs 0.62756(3) 0.80550(4) 0.12655(2)
Cs1G Cs 0.37244(3) 0.19450(4) -0.12655(2)
Cs1F Cs 0.87244(3) 0.69450(4) -0.12655(2)
Cs1A Cs 1.37244(3) -0.19450(4) 0.37345(2)
Cs1F_2 Cs 0.87244(3) -0.30550(4) -0.12655(2)
Cs1_2 Cs 0.87244(3) 0.30550(4) -0.62655(2)
Cs1A_2 Cs 0.37244(3) -0.19450(4) -0.62655(2)
Cs1A_3 Cs 0.37244(3) 0.80550(4) -0.62655(2)
O1E O 0.8602(3) 0.2291(6) -0.0934(3)
O1G O 1.1398(3) 0.2291(6) 0.5934(3)
O1C O 0.8602(3) -0.2291(6) 0.4066(3)
O1C_2 O 0.8602(3) 0.7709(6) 0.4066(3)
O1F O 0.6398(3) -0.2709(6) -0.4066(3)
O1F_2 O 0.6398(3) 0.7291(6) -0.4066(3)
O1B O 0.3602(3) 0.2709(6) -0.5934(3)
O2E O 0.6758(3) 0.0450(5) -0.0942(3)
O2F O 0.8242(3) 0.5450(5) 0.5942(3)
O2B O 1.1758(3) 0.4550(5) 0.4058(3)
O2C O 0.6758(3) -0.0450(5) 0.4058(3)
O2F_2 O 0.8242(3) 0.5450(5) -0.4058(3)
O2G O 0.3242(3) 0.0450(5) -0.4058(3)
O2C_2 O 0.6758(3) -0.0450(5) -0.5942(3)
O3A O 0.5000 0.4465(9) 0.2500
O3F O 1.0000 0.0535(9) -0.2500
O3G O 0.5000 0.5535(9) -0.2500
H1B H 1.032(6) -0.128(9) 0.209(5)
H1A H 0.468(6) 0.372(9) 0.291(5)
H1C H 0.532(6) 0.372(9) 0.209(5)
H1F H 0.968(6) 0.128(9) -0.209(5)
H1D H 1.032(6) 0.128(9) -0.291(5)
H1G H 0.468(6) 0.628(9) -0.209(5)
H1E H 0.532(6) 0.628(9) -0.291(5)
C1E C 0.7607(5) 0.1852(6) -0.0543(4)
loop_
_geom_bond_atom_site_label_1
_geom_bond_atom_site_label_2
_geom_bond_site_symmetry_1
_geom_bond_site_symmetry_2
Cs1 O1 1_555 1_555
O1 C1 1_555 1_555
O2 Cs1 1_555 1_555
O3 Cs1 1_555 1_555
H1 O3 1_555 1_555
C1 O2 1_555 1_555
Cs1E O1E 1_555 1_555
Cs1D O1G 1_555 1_555
Cs1D_2 O1G 1_555 1_555
Cs1E_2 O2F 1_555 1_555
Cs1B O2 1_555 1_555
Cs1C O1 1_555 1_555
Cs1C_2 O1 1_555 1_555
Cs1G O1 1_555 1_555
Cs1F O2 1_555 1_555
Cs1A O3 1_555 1_555
Cs1F_2 O1E 1_555 1_555
Cs1_2 O2F_2 1_555 1_555
Cs1A_2 O1F 1_555 1_555
Cs1A_3 O1F_2 1_555 1_555
O1E Cs1B 1_555 1_555
O1G Cs1 1_555 1_555
O1C Cs1 1_555 1_555
O1C_2 Cs1 1_555 1_555
O1F Cs1E 1_555 1_555
O1F_2 Cs1E 1_555 1_555
O1B Cs1E 1_555 1_555
O2E Cs1E 1_555 1_555
O2F Cs1 1_555 1_555
O2B Cs1 1_555 1_555
O2C Cs1 1_555 1_555
O2F_2 Cs1E 1_555 1_555
O2G Cs1E 1_555 1_555
O2C_2 Cs1E 1_555 1_555
O3A Cs1 1_555 1_555
O3F Cs1E 1_555 1_555
O3G Cs1E 1_555 1_555
H1B O3 1_555 1_555
H1A O3A 1_555 1_555
H1C O3A 1_555 1_555
H1F O3F 1_555 1_555
H1D O3F 1_555 1_555
H1G O3G 1_555 1_555
H1E O3G 1_555 1_555
C1E C1 1_555 1_555
O2 Cs1C_2 1_555 1_555
O3 Cs1B 1_555 1_555
O3 Cs1C 1_555 1_555
Cs1D O1C 1_555 1_555
Cs1D_2 O1C_2 1_555 1_555
Cs1D_2 O2F 1_555 1_555
Cs1D_2 O2B 1_555 1_555
Cs1E_2 O2C 1_555 1_555
Cs1B O2B 1_555 1_555
Cs1C O1C 1_555 1_555
Cs1C O2E 1_555 1_555
Cs1C O2C 1_555 1_555
Cs1C_2 O1C_2 1_555 1_555
Cs1C_2 O3A 1_555 1_555
Cs1G O2E 1_555 1_555
Cs1G O2G 1_555 1_555
Cs1G O3G 1_555 1_555
Cs1F O1E 1_555 1_555
Cs1F O1F_2 1_555 1_555
Cs1F O2F_2 1_555 1_555
Cs1F O3G 1_555 1_555
Cs1F_2 O1F 1_555 1_555
Cs1F_2 O2E 1_555 1_555
Cs1F_2 O3F 1_555 1_555
Cs1_2 O2C_2 1_555 1_555
Cs1A_2 O1B 1_555 1_555
Cs1A_2 O2G 1_555 1_555
Cs1A_2 O2C_2 1_555 1_555
Cs1A_3 O1B 1_555 1_555
O1E C1E 1_555 1_555
O2E C1E 1_555 1_555

#END
