
#######################################################################
#
#                 Cambridge Crystallographic Data Centre
#                                CCDC 
#
#######################################################################
#
# If this CIF has been generated from an entry in the Cambridge 
# Structural Database, then it will include bibliographic, chemical, 
# crystal, experimental, refinement or atomic coordinate data resulting 
# from the CCDC's data processing and validation procedures.
#
#######################################################################

data_ZZZFUI02
_symmetry_cell_setting           monoclinic
_symmetry_space_group_name_H-M   'C 2/c'
_symmetry_Int_Tables_number      15
_space_group_name_Hall           '-C 2yn'
loop_
_symmetry_equiv_pos_site_id
_symmetry_equiv_pos_as_xyz
1 x,y,z
2 1/2+x,1/2+y,z
3 -x,y,1/2-z
4 1/2-x,1/2+y,1/2-z
5 -x,-y,-z
6 1/2-x,1/2-y,-z
7 x,-y,1/2+z
8 1/2+x,1/2-y,1/2+z
_cell_length_a                   10.1127(5)
_cell_length_b                   6.6535(4)
_cell_length_c                   11.3257(6)
_cell_angle_alpha                90
_cell_angle_beta                 107.190(4)
_cell_angle_gamma                90
_cell_volume                     728.007
loop_
_atom_site_label
_atom_site_type_symbol
_atom_site_fract_x
_atom_site_fract_y
_atom_site_fract_z
O1 O 1.0000 0.5525(12) 0.2500
O2 O 0.8610(5) -0.2705(6) 0.4051(4)
O3 O 0.6750(5) -0.4535(7) 0.4042(4)
Cs1 Cs 0.8729(4) 0.1932(7) 0.3741(4)
C1 C 0.7606(4) -0.3157(6) 0.4458(3)
H1 H 0.9556(11) 0.6356(13) 0.2988(8)
O1A O 0.5000 0.0525(12) 0.2500
O1A_2 O 1.5000 1.0525(12) 0.2500
O2E O 0.6390(5) -0.2295(6) 0.5949(4)
O2_2 O 0.8610(5) 0.7295(6) 0.4051(4)
O2D O 1.1390(5) 0.2705(6) 0.5949(4)
O2C O 0.6390(5) 0.2295(6) 0.0949(4)
O2A O 1.3610(5) 0.2295(6) 0.4051(4)
O2A_2 O 1.3610(5) 1.2295(6) 0.4051(4)
O2B O 1.1390(5) 0.7295(6) 0.0949(4)
O2E_2 O 1.6390(5) 0.7705(6) 0.5949(4)
O3E O 0.8250(5) -0.0465(7) 0.5958(4)
O3_2 O 0.6750(5) 0.5465(7) 0.4042(4)
O3A O 1.1750(5) 0.0465(7) 0.4042(4)
O3C O 0.8250(5) 0.0465(7) 0.0958(4)
O3_3 O 1.6750(5) 0.5465(7) 0.4042(4)
O3A_2 O 1.1750(5) 1.0465(7) 0.4042(4)
O3D O 1.3250(5) 0.4535(7) 0.5958(4)
O3B O 1.3250(5) 0.5465(7) 0.0958(4)
Cs1A Cs 1.3729(4) 0.6932(7) 0.3741(4)
Cs1B Cs 1.1271(4) 0.1932(7) 0.1259(4)
Cs1C Cs 0.6271(4) 0.6932(7) 0.1259(4)
Cs1_2 Cs 0.8729(4) -0.8068(7) 0.3741(4)
Cs1D Cs 1.1271(4) -0.1932(7) 0.6259(4)
Cs1C_2 Cs 0.6271(4) -0.3068(7) 0.1259(4)
Cs1A_2 Cs 0.3729(4) -0.3068(7) 0.3741(4)
Cs1E Cs 0.6271(4) -0.6932(7) 0.6259(4)
Cs1D_2 Cs 1.1271(4) 0.8068(7) 0.6259(4)
Cs1E_2 Cs 0.6271(4) 0.3068(7) 0.6259(4)
Cs1F Cs 0.8729(4) -0.1932(7) 0.8741(4)
Cs1B_2 Cs 1.1271(4) 1.1932(7) 0.1259(4)
Cs1E_3 Cs 1.6271(4) 0.3068(7) 0.6259(4)
Cs1E_4 Cs 1.6271(4) 1.3068(7) 0.6259(4)
Cs1C_3 Cs 1.6271(4) 0.6932(7) 0.1259(4)
C1E C 0.7394(4) -0.1843(6) 0.5542(3)
C1_2 C 0.7606(4) 0.6843(6) 0.4458(3)
C1C C 0.7394(4) 0.1843(6) 0.0542(3)
C1A C 1.2606(4) 1.1843(6) 0.4458(3)
C1B C 1.2394(4) 0.6843(6) 0.0542(3)
H1B H 1.0444(11) 0.6356(13) 0.2012(8)
H1A H 0.4556(11) 0.1356(13) 0.2988(8)
H1C H 0.5444(11) 0.1356(13) 0.2012(8)
H1A_2 H 1.4556(11) 1.1356(13) 0.2988(8)
H1C_2 H 1.5444(11) 1.1356(13) 0.2012(8)
loop_
_geom_bond_atom_site_label_1
_geom_bond_atom_site_label_2
_geom_bond_site_symmetry_1
_geom_bond_site_symmetry_2
O1 Cs1 1_555 1_555
O2 Cs1 1_555 1_555
O3 C1 1_555 1_555
Cs1 O1A 1_555 1_555
C1 O2 1_555 1_555
H1 O1 1_555 1_555
O1A Cs1C_2 1_555 1_555
O1A_2 Cs1A 1_555 1_555
O2E Cs1A_2 1_555 1_555
O2_2 Cs1 1_555 1_555
O2D Cs1 1_555 1_555
O2C Cs1 1_555 1_555
O2A Cs1A 1_555 1_555
O2A_2 Cs1A 1_555 1_555
O2B Cs1A 1_555 1_555
O2E_2 Cs1A 1_555 1_555
O3E Cs1 1_555 1_555
O3_2 Cs1 1_555 1_555
O3A Cs1 1_555 1_555
O3C Cs1 1_555 1_555
O3_3 Cs1A 1_555 1_555
O3A_2 Cs1A 1_555 1_555
O3D Cs1A 1_555 1_555
O3B Cs1A 1_555 1_555
Cs1A O1 1_555 1_555
Cs1B O1 1_555 1_555
Cs1C O1 1_555 1_555
Cs1_2 O2 1_555 1_555
Cs1D O2 1_555 1_555
Cs1C_2 O2 1_555 1_555
Cs1A_2 O3 1_555 1_555
Cs1E O3 1_555 1_555
Cs1D_2 O2_2 1_555 1_555
Cs1E_2 O2E 1_555 1_555
Cs1F O2E 1_555 1_555
Cs1B_2 O1A_2 1_555 1_555
Cs1E_3 O2A 1_555 1_555
Cs1E_4 O2A_2 1_555 1_555
Cs1C_3 O1A_2 1_555 1_555
C1E C1 1_555 1_555
C1_2 O2_2 1_555 1_555
C1C O2C 1_555 1_555
C1A O2A_2 1_555 1_555
C1B O2B 1_555 1_555
H1B O1 1_555 1_555
H1A O1A 1_555 1_555
H1C O1A 1_555 1_555
H1A_2 O1A_2 1_555 1_555
H1C_2 O1A_2 1_555 1_555
O3 Cs1_2 1_555 1_555
O3 Cs1C_2 1_555 1_555
O1A Cs1A_2 1_555 1_555
O2E Cs1E 1_555 1_555
O2E C1E 1_555 1_555
O2_2 Cs1C 1_555 1_555
O2D Cs1D 1_555 1_555
O2D Cs1D_2 1_555 1_555
O2C Cs1C 1_555 1_555
O2C Cs1C_2 1_555 1_555
O2A Cs1B 1_555 1_555
O2A_2 Cs1B_2 1_555 1_555
O2B Cs1B 1_555 1_555
O2B Cs1B_2 1_555 1_555
O2E_2 Cs1E_3 1_555 1_555
O2E_2 Cs1E_4 1_555 1_555
O3E Cs1D 1_555 1_555
O3E Cs1E_2 1_555 1_555
O3E Cs1F 1_555 1_555
O3E C1E 1_555 1_555
O3_2 Cs1C 1_555 1_555
O3_2 Cs1E_2 1_555 1_555
O3_2 C1_2 1_555 1_555
O3A Cs1B 1_555 1_555
O3A Cs1D 1_555 1_555
O3C Cs1B 1_555 1_555
O3C Cs1C_2 1_555 1_555
O3C C1C 1_555 1_555
O3_3 Cs1E_3 1_555 1_555
O3_3 Cs1C_3 1_555 1_555
O3A_2 Cs1D_2 1_555 1_555
O3A_2 Cs1B_2 1_555 1_555
O3A_2 C1A 1_555 1_555
O3D Cs1D_2 1_555 1_555
O3D Cs1E_3 1_555 1_555
O3B Cs1B 1_555 1_555
O3B Cs1C_3 1_555 1_555
O3B C1B 1_555 1_555

#END
