
#######################################################################
#
#                 Cambridge Crystallographic Data Centre
#                                CCDC 
#
#######################################################################
#
# If this CIF has been generated from an entry in the Cambridge 
# Structural Database, then it will include bibliographic, chemical, 
# crystal, experimental, refinement or atomic coordinate data resulting 
# from the CCDC's data processing and validation procedures.
#
#######################################################################

data_ZZZFUU02
_symmetry_cell_setting           monoclinic
_symmetry_space_group_name_H-M   'P 21/c'
_symmetry_Int_Tables_number      14
_space_group_name_Hall           '-P 2ybc'
loop_
_symmetry_equiv_pos_site_id
_symmetry_equiv_pos_as_xyz
1 x,y,z
2 -x,1/2+y,1/2-z
3 -x,-y,-z
4 x,1/2-y,1/2+z
_cell_length_a                   4.2940(1)
_cell_length_b                   13.6229(2)
_cell_length_c                   7.6689(1)
_cell_angle_alpha                90
_cell_angle_beta                 101.50(5)
_cell_angle_gamma                90
_cell_volume                     439.6
loop_
_atom_site_label
_atom_site_type_symbol
_atom_site_fract_x
_atom_site_fract_y
_atom_site_fract_z
Rb1 Rb 0.28942(7) 0.566838(19) 0.23773(4)
O1 O 0.2351(6) 0.57480(15) -0.1509(3)
O2 O 0.3610(5) 0.73337(16) -0.1565(3)
O3 O -0.1587(5) 0.76740(15) -0.4053(3)
O4 O -0.2067(6) 0.60646(17) -0.4562(4)
C1 C 0.1986(6) 0.6594(2) -0.2102(4)
C2 C -0.0796(7) 0.6759(2) -0.3721(4)
H1 H -0.338(11) 0.771(3) -0.499(6)
Rb1B Rb -0.28942(7) 0.433162(19) -0.23773(4)
Rb1B_2 Rb 0.71058(7) 0.433162(19) -0.23773(4)
Rb1C Rb 0.28942(7) 0.933162(19) -0.26227(4)
Rb1_2 Rb -0.71058(7) 0.566838(19) -0.76227(4)
O1B O -0.2351(6) 0.42520(15) 0.1509(3)
O1B_2 O 0.7649(6) 0.42520(15) 0.1509(3)
O2C O 0.3610(5) 0.76663(16) 0.3435(3)
O3C O -0.1587(5) 0.73260(15) 0.0947(3)
O4_2 O 0.7933(6) 0.60646(17) 0.5438(4)
O4B O 0.2067(6) 0.39354(17) 0.4562(4)
H1C H -0.338(11) 0.729(3) 0.001(6)
loop_
_geom_bond_atom_site_label_1
_geom_bond_atom_site_label_2
_geom_bond_site_symmetry_1
_geom_bond_site_symmetry_2
Rb1 O1 1_555 1_555
O1 C1 1_555 1_555
O2 C1 1_555 1_555
O3 C2 1_555 1_555
O4 C2 1_555 1_555
C1 C2 1_555 1_555
H1 O3 1_555 1_555
Rb1B O1 1_555 1_555
Rb1B_2 O1 1_555 1_555
Rb1C O2 1_555 1_555
Rb1_2 O4 1_555 1_555
O1B Rb1 1_555 1_555
O1B_2 Rb1 1_555 1_555
O2C Rb1 1_555 1_555
O3C Rb1 1_555 1_555
O4_2 Rb1 1_555 1_555
O4B Rb1 1_555 1_555
H1C O3C 1_555 1_555
O3 Rb1C 1_555 1_555
O4 Rb1B 1_555 1_555
Rb1B O1B 1_555 1_555
Rb1B_2 O1B_2 1_555 1_555

#END
