
#######################################################################
#
#                 Cambridge Crystallographic Data Centre
#                                CCDC 
#
#######################################################################
#
# If this CIF has been generated from an entry in the Cambridge 
# Structural Database, then it will include bibliographic, chemical, 
# crystal, experimental, refinement or atomic coordinate data resulting 
# from the CCDC's data processing and validation procedures.
#
#######################################################################

data_ZZZFUI03
_symmetry_cell_setting           monoclinic
_symmetry_space_group_name_H-M   'C 2/c'
_symmetry_Int_Tables_number      15
_space_group_name_Hall           '-C 2yn'
loop_
_symmetry_equiv_pos_site_id
_symmetry_equiv_pos_as_xyz
1 x,y,z
2 1/2+x,1/2+y,z
3 -x,y,1/2-z
4 1/2-x,1/2+y,1/2-z
5 -x,-y,-z
6 1/2-x,1/2-y,-z
7 x,-y,1/2+z
8 1/2+x,1/2-y,1/2+z
_cell_length_a                   10.075(5)
_cell_length_b                   6.6473(3)
_cell_length_c                   11.2997(6)
_cell_angle_alpha                90
_cell_angle_beta                 107.189(3)
_cell_angle_gamma                90
_cell_volume                     722.958
loop_
_atom_site_label
_atom_site_type_symbol
_atom_site_fract_x
_atom_site_fract_y
_atom_site_fract_z
Cs1 Cs 0.87244(2) 0.30554(3) 0.373459(19)
O1 O 0.6394(3) 0.2710(4) 0.0931(2)
O2 O 0.8240(2) 0.4548(3) 0.0944(2)
C1 C 0.7395(4) 0.3145(4) 0.0540(3)
O3 O 1.00000 -0.0529(7) 0.25000
H1 H 0.962(4) -0.131(5) 0.281(4)
Cs1E Cs 0.62756(2) 0.19446(3) -0.373459(19)
Cs1D Cs 1.12756(2) 0.69446(3) 0.626541(19)
Cs1B Cs 1.12756(2) 0.30554(3) 0.126541(19)
Cs1E_2 Cs 0.62756(2) 0.19446(3) 0.626541(19)
Cs1C Cs 0.62756(2) -0.19446(3) 0.126541(19)
Cs1C_2 Cs 0.62756(2) 0.80554(3) 0.126541(19)
Cs1G Cs 0.37244(2) 0.19446(3) -0.126541(19)
Cs1F Cs 0.87244(2) 0.69446(3) -0.126541(19)
Cs1A Cs 1.37244(2) -0.19446(3) 0.373459(19)
Cs1F_2 Cs 0.87244(2) -0.30554(3) -0.126541(19)
Cs1_2 Cs 0.87244(2) 0.30554(3) -0.626541(19)
Cs1A_2 Cs 0.37244(2) -0.19446(3) -0.626541(19)
O1E O 0.8606(3) 0.2290(4) -0.0931(2)
O1G O 1.1394(3) 0.2290(4) 0.5931(2)
O1C O 0.8606(3) -0.2290(4) 0.4069(2)
O1C_2 O 0.8606(3) 0.7710(4) 0.4069(2)
O1F O 0.6394(3) -0.2710(4) -0.4069(2)
O1F_2 O 0.6394(3) 0.7290(4) -0.4069(2)
O1B O 0.3606(3) 0.2710(4) -0.5931(2)
O2E O 0.6760(2) 0.0452(3) -0.0944(2)
O2F O 0.8240(2) 0.5452(3) 0.5944(2)
O2B O 1.1760(2) 0.4548(3) 0.4056(2)
O2C O 0.6760(2) -0.0452(3) 0.4056(2)
O2F_2 O 0.8240(2) 0.5452(3) -0.4056(2)
O2G O 0.3240(2) 0.0452(3) -0.4056(2)
O2C_2 O 0.6760(2) -0.0452(3) -0.5944(2)
C1E C 0.7605(4) 0.1855(4) -0.0540(3)
O3A O 0.50000 0.4471(7) 0.25000
O3F O 1.00000 0.0529(7) -0.25000
O3G O 0.50000 0.5529(7) -0.25000
H1B H 1.038(4) -0.131(5) 0.219(4)
H1A H 0.462(4) 0.369(5) 0.281(4)
H1C H 0.538(4) 0.369(5) 0.219(4)
H1F H 0.962(4) 0.131(5) -0.219(4)
H1D H 1.038(4) 0.131(5) -0.281(4)
H1G H 0.462(4) 0.631(5) -0.219(4)
H1E H 0.538(4) 0.631(5) -0.281(4)
loop_
_geom_bond_atom_site_label_1
_geom_bond_atom_site_label_2
_geom_bond_site_symmetry_1
_geom_bond_site_symmetry_2
Cs1 O1 1_555 1_555
O1 C1 1_555 1_555
O2 Cs1 1_555 1_555
C1 O2 1_555 1_555
O3 Cs1 1_555 1_555
H1 O3 1_555 1_555
Cs1E O1E 1_555 1_555
Cs1D O1G 1_555 1_555
Cs1B O2 1_555 1_555
Cs1E_2 O2F 1_555 1_555
Cs1C O1 1_555 1_555
Cs1C_2 O1 1_555 1_555
Cs1G O1 1_555 1_555
Cs1F O2 1_555 1_555
Cs1A O3 1_555 1_555
Cs1F_2 O1E 1_555 1_555
Cs1_2 O2F_2 1_555 1_555
Cs1A_2 O1F 1_555 1_555
O1E Cs1B 1_555 1_555
O1G Cs1 1_555 1_555
O1C Cs1 1_555 1_555
O1C_2 Cs1 1_555 1_555
O1F Cs1E 1_555 1_555
O1F_2 Cs1E 1_555 1_555
O1B Cs1E 1_555 1_555
O2E Cs1E 1_555 1_555
O2F Cs1 1_555 1_555
O2B Cs1 1_555 1_555
O2C Cs1 1_555 1_555
O2F_2 Cs1E 1_555 1_555
O2G Cs1E 1_555 1_555
O2C_2 Cs1E 1_555 1_555
C1E C1 1_555 1_555
O3A Cs1 1_555 1_555
O3F Cs1E 1_555 1_555
O3G Cs1E 1_555 1_555
H1B O3 1_555 1_555
H1A O3A 1_555 1_555
H1C O3A 1_555 1_555
H1F O3F 1_555 1_555
H1D O3F 1_555 1_555
H1G O3G 1_555 1_555
H1E O3G 1_555 1_555
O2 Cs1C_2 1_555 1_555
O3 Cs1B 1_555 1_555
O3 Cs1C 1_555 1_555
Cs1D O1C_2 1_555 1_555
Cs1D O2F 1_555 1_555
Cs1D O2B 1_555 1_555
Cs1B O2B 1_555 1_555
Cs1E_2 O2C 1_555 1_555
Cs1C O1C 1_555 1_555
Cs1C O2E 1_555 1_555
Cs1C O2C 1_555 1_555
Cs1C_2 O1C_2 1_555 1_555
Cs1C_2 O3A 1_555 1_555
Cs1G O2E 1_555 1_555
Cs1G O2G 1_555 1_555
Cs1G O3G 1_555 1_555
Cs1F O1E 1_555 1_555
Cs1F O1F_2 1_555 1_555
Cs1F O2F_2 1_555 1_555
Cs1F O3G 1_555 1_555
Cs1F_2 O1F 1_555 1_555
Cs1F_2 O2E 1_555 1_555
Cs1F_2 O3F 1_555 1_555
Cs1_2 O2C_2 1_555 1_555
Cs1A_2 O1B 1_555 1_555
Cs1A_2 O2G 1_555 1_555
Cs1A_2 O2C_2 1_555 1_555
O1E C1E 1_555 1_555
O2E C1E 1_555 1_555

#END
