
#######################################################################
#
#                 Cambridge Crystallographic Data Centre
#                                CCDC 
#
#######################################################################
#
# If this CIF has been generated from an entry in the Cambridge 
# Structural Database, then it will include bibliographic, chemical, 
# crystal, experimental, refinement or atomic coordinate data resulting 
# from the CCDC's data processing and validation procedures.
#
#######################################################################

data_ZZZFUI04
_symmetry_cell_setting           monoclinic
_symmetry_space_group_name_H-M   'C 2/c'
_symmetry_Int_Tables_number      15
_space_group_name_Hall           '-C 2yn'
loop_
_symmetry_equiv_pos_site_id
_symmetry_equiv_pos_as_xyz
1 x,y,z
2 1/2+x,1/2+y,z
3 -x,y,1/2-z
4 1/2-x,1/2+y,1/2-z
5 -x,-y,-z
6 1/2-x,1/2-y,-z
7 x,-y,1/2+z
8 1/2+x,1/2-y,1/2+z
_cell_length_a                   10.1125(6)
_cell_length_b                   6.6535(4)
_cell_length_c                   11.3255(7)
_cell_angle_alpha                90
_cell_angle_beta                 107.191(4)
_cell_angle_gamma                90
_cell_volume                     727.976
loop_
_atom_site_label
_atom_site_type_symbol
_atom_site_fract_x
_atom_site_fract_y
_atom_site_fract_z
O1 O 1.00000 0.5544(5) 0.25000
O2 O 0.8606(2) -0.2708(3) 0.40669(19)
O3 O 0.67580(19) -0.4548(3) 0.40541(17)
Cs1 Cs 0.872442(19) 0.19446(3) 0.373455(17)
C1 C 0.7606(3) -0.3148(3) 0.4454(2)
H1 H 0.9550(9) 0.6365(11) 0.2968(7)
O1A O 0.50000 0.0544(5) 0.25000
O1A_2 O 1.50000 1.0544(5) 0.25000
O2E O 0.6394(2) -0.2292(3) 0.59331(19)
O2_2 O 0.8606(2) 0.7292(3) 0.40669(19)
O2D O 1.1394(2) 0.2708(3) 0.59331(19)
O2C O 0.6394(2) 0.2292(3) 0.09331(19)
O2A O 1.3606(2) 0.2292(3) 0.40669(19)
O2A_2 O 1.3606(2) 1.2292(3) 0.40669(19)
O2B O 1.1394(2) 0.7292(3) 0.09331(19)
O2E_2 O 1.6394(2) 0.7708(3) 0.59331(19)
O3E O 0.82420(19) -0.0452(3) 0.59459(17)
O3_2 O 0.67580(19) 0.5452(3) 0.40541(17)
O3A O 1.17580(19) 0.0452(3) 0.40541(17)
O3C O 0.82420(19) 0.0452(3) 0.09459(17)
O3_3 O 1.67580(19) 0.5452(3) 0.40541(17)
O3A_2 O 1.17580(19) 1.0452(3) 0.40541(17)
O3D O 1.32420(19) 0.4548(3) 0.59459(17)
O3B O 1.32420(19) 0.5452(3) 0.09459(17)
Cs1A Cs 1.372442(19) 0.69446(3) 0.373455(17)
Cs1B Cs 1.127558(19) 0.19446(3) 0.126545(17)
Cs1C Cs 0.627558(19) 0.69446(3) 0.126545(17)
Cs1_2 Cs 0.872442(19) -0.80554(3) 0.373455(17)
Cs1D Cs 1.127558(19) -0.19446(3) 0.626545(17)
Cs1C_2 Cs 0.627558(19) -0.30554(3) 0.126545(17)
Cs1A_2 Cs 0.372442(19) -0.30554(3) 0.373455(17)
Cs1E Cs 0.627558(19) -0.69446(3) 0.626545(17)
Cs1E_2 Cs 0.627558(19) 0.30554(3) 0.626545(17)
Cs1F Cs 0.872442(19) -0.19446(3) 0.873455(17)
Cs1D_2 Cs 1.127558(19) 0.80554(3) 0.626545(17)
Cs1B_2 Cs 1.127558(19) 1.19446(3) 0.126545(17)
Cs1E_3 Cs 1.627558(19) 0.30554(3) 0.626545(17)
Cs1C_3 Cs 1.627558(19) 0.69446(3) 0.126545(17)
C1E C 0.7394(3) -0.1852(3) 0.5546(2)
H1B H 1.0450(9) 0.6365(11) 0.2032(7)
H1A H 0.4550(9) 0.1365(11) 0.2968(7)
H1C H 0.5450(9) 0.1365(11) 0.2032(7)
H1A_2 H 1.4550(9) 1.1365(11) 0.2968(7)
H1C_2 H 1.5450(9) 1.1365(11) 0.2032(7)
loop_
_geom_bond_atom_site_label_1
_geom_bond_atom_site_label_2
_geom_bond_site_symmetry_1
_geom_bond_site_symmetry_2
O1 Cs1 1_555 1_555
O2 Cs1 1_555 1_555
O3 C1 1_555 1_555
Cs1 O1A 1_555 1_555
C1 O2 1_555 1_555
H1 O1 1_555 1_555
O1A Cs1C_2 1_555 1_555
O1A_2 Cs1A 1_555 1_555
O2E Cs1A_2 1_555 1_555
O2_2 Cs1 1_555 1_555
O2D Cs1 1_555 1_555
O2C Cs1 1_555 1_555
O2A Cs1A 1_555 1_555
O2A_2 Cs1A 1_555 1_555
O2B Cs1A 1_555 1_555
O2E_2 Cs1A 1_555 1_555
O3E Cs1 1_555 1_555
O3_2 Cs1 1_555 1_555
O3A Cs1 1_555 1_555
O3C Cs1 1_555 1_555
O3_3 Cs1A 1_555 1_555
O3A_2 Cs1A 1_555 1_555
O3D Cs1A 1_555 1_555
O3B Cs1A 1_555 1_555
Cs1A O1 1_555 1_555
Cs1B O1 1_555 1_555
Cs1C O1 1_555 1_555
Cs1_2 O2 1_555 1_555
Cs1D O2 1_555 1_555
Cs1C_2 O2 1_555 1_555
Cs1A_2 O3 1_555 1_555
Cs1E O3 1_555 1_555
Cs1E_2 O2E 1_555 1_555
Cs1F O2E 1_555 1_555
Cs1D_2 O2_2 1_555 1_555
Cs1B_2 O1A_2 1_555 1_555
Cs1E_3 O2A 1_555 1_555
Cs1C_3 O1A_2 1_555 1_555
C1E C1 1_555 1_555
H1B O1 1_555 1_555
H1A O1A 1_555 1_555
H1C O1A 1_555 1_555
H1A_2 O1A_2 1_555 1_555
H1C_2 O1A_2 1_555 1_555
O3 Cs1_2 1_555 1_555
O3 Cs1C_2 1_555 1_555
O1A Cs1A_2 1_555 1_555
O2E Cs1E 1_555 1_555
O2E C1E 1_555 1_555
O2_2 Cs1C 1_555 1_555
O2D Cs1D 1_555 1_555
O2D Cs1D_2 1_555 1_555
O2C Cs1C 1_555 1_555
O2C Cs1C_2 1_555 1_555
O2A Cs1B 1_555 1_555
O2A_2 Cs1B_2 1_555 1_555
O2B Cs1B 1_555 1_555
O2B Cs1B_2 1_555 1_555
O2E_2 Cs1E_3 1_555 1_555
O3E Cs1D 1_555 1_555
O3E Cs1E_2 1_555 1_555
O3E Cs1F 1_555 1_555
O3E C1E 1_555 1_555
O3_2 Cs1C 1_555 1_555
O3_2 Cs1E_2 1_555 1_555
O3A Cs1B 1_555 1_555
O3A Cs1D 1_555 1_555
O3C Cs1B 1_555 1_555
O3C Cs1C_2 1_555 1_555
O3_3 Cs1E_3 1_555 1_555
O3_3 Cs1C_3 1_555 1_555
O3A_2 Cs1D_2 1_555 1_555
O3A_2 Cs1B_2 1_555 1_555
O3D Cs1D_2 1_555 1_555
O3D Cs1E_3 1_555 1_555
O3B Cs1B 1_555 1_555
O3B Cs1C_3 1_555 1_555

#END
