
#######################################################################
#
#                 Cambridge Crystallographic Data Centre
#                                CCDC 
#
#######################################################################
#
# If this CIF has been generated from an entry in the Cambridge 
# Structural Database, then it will include bibliographic, chemical, 
# crystal, experimental, refinement or atomic coordinate data resulting 
# from the CCDC's data processing and validation procedures.
#
#######################################################################

data_ZZZHDA01
_symmetry_cell_setting           orthorhombic
_symmetry_space_group_name_H-M   'F d d d'
_symmetry_Int_Tables_number      70
_space_group_name_Hall           '-F 2uv 2vw'
loop_
_symmetry_equiv_pos_site_id
_symmetry_equiv_pos_as_xyz
1 x,y,z
2 1/4-x,1/4-y,z
3 x,1/4-y,1/4-z
4 1/4-x,y,1/4-z
5 x,1/2+y,1/2+z
6 1/2+x,y,1/2+z
7 1/2+x,1/2+y,z
8 3/4+x,1/4+y,1/2-z
9 -x,1/4+y,1/4+z
10 3/4+x,1/2-y,1/4+z
11 1/4+x,3/4+y,1/2-z
12 1/2-x,3/4+y,1/4+z
13 1/4+x,-y,1/4+z
14 1/4+x,1/4+y,-z
15 1/2-x,1/4+y,3/4+z
16 1/4+x,1/2-y,3/4+z
17 -x,-y,-z
18 3/4+x,3/4+y,-z
19 -x,3/4+y,3/4+z
20 3/4+x,-y,3/4+z
21 -x,1/2-y,1/2-z
22 1/2-x,-y,1/2-z
23 1/2-x,1/2-y,-z
24 1/4-x,3/4-y,1/2+z
25 x,3/4-y,3/4-z
26 1/4-x,1/2+y,3/4-z
27 3/4-x,1/4-y,1/2+z
28 1/2+x,1/4-y,3/4-z
29 3/4-x,y,3/4-z
30 3/4-x,3/4-y,z
31 1/2+x,3/4-y,1/4-z
32 3/4-x,1/2+y,1/4-z
_cell_length_a                   8.426(2)
_cell_length_b                   12.011(3)
_cell_length_c                   15.671(3)
_cell_angle_alpha                90
_cell_angle_beta                 90
_cell_angle_gamma                90
_cell_volume                     1585.98
loop_
_atom_site_label
_atom_site_type_symbol
_atom_site_fract_x
_atom_site_fract_y
_atom_site_fract_z
K1 K 0.3750 0.52405(7) 0.3750
C1 C 0.6250 0.6250 0.2194(2)
O1 O 0.6250 0.6250 0.29940(18)
O2 O 0.3441(2) 0.61034(17) 0.21116(12)
C2 C 0.4733(3) 0.6199(2) 0.17206(16)
C2B C 0.4733(3) 0.6301(2) 0.07794(16)
C1B C 0.6250 0.6250 0.0306(2)
O1B O 0.6250 0.6250 -0.04940(18)
C2C C 0.7767(3) 0.6199(2) 0.07794(16)
O2C O 0.9059(2) 0.61034(17) 0.03884(12)
C2A C 0.7767(3) 0.6301(2) 0.17206(16)
O2A O 0.9059(2) 0.63966(17) 0.21116(12)
O2B O 0.3441(2) 0.63966(17) 0.03884(12)
K1B K 0.3750 0.72595(7) -0.1250
K1X K 0.3750 0.22595(7) 0.3750
O1AA O 0.1250 0.6250 0.45060(18)
O2J O 0.5941(2) 0.36034(17) 0.28884(12)
O2K O 0.1559(2) 0.36034(17) 0.46116(12)
O2L O 0.5941(2) 0.38966(17) 0.46116(12)
O2U O 0.1559(2) 0.38966(17) 0.28884(12)
O2BA O 0.4059(2) 0.61034(17) 0.53884(12)
K1A K 0.8750 0.72595(7) 0.3750
K1G K 0.1250 0.77405(7) 0.1250
K1S K 0.1250 0.47595(7) 0.1250
K1C K 0.8750 0.52405(7) -0.1250
K1G_2 K 1.1250 0.77405(7) 0.1250
K1S_2 K 1.1250 0.47595(7) 0.1250
K1D K 0.3750 1.02405(7) -0.1250
O1E O 0.1250 0.6250 -0.20060(18)
O2M O 0.5941(2) 0.86034(17) -0.21116(12)
O2N O 0.1559(2) 0.86034(17) -0.03884(12)
O2O O 0.5941(2) 0.88966(17) -0.03884(12)
O2V O 0.1559(2) 0.88966(17) -0.21116(12)
O2Z O 0.4059(2) 0.63966(17) -0.28884(12)
loop_
_geom_bond_atom_site_label_1
_geom_bond_atom_site_label_2
_geom_bond_site_symmetry_1
_geom_bond_site_symmetry_2
K1 O1 1_555 1_555
C1 O1 1_555 1_555
O1 K1A 1_555 1_555
O2 K1 1_555 1_555
C2 C1 1_555 1_555
C2B C2 1_555 1_555
C1B C2B 1_555 1_555
O1B C1B 1_555 1_555
C2C C1B 1_555 1_555
O2C C2C 1_555 1_555
C2A C1 1_555 1_555
O2A C2A 1_555 1_555
O2B C2B 1_555 1_555
K1B O1B 1_555 1_555
K1X O2J 1_555 1_555
O1AA K1 1_555 1_555
O2J K1 1_555 1_555
O2K K1 1_555 1_555
O2L K1 1_555 1_555
O2U K1 1_555 1_555
O2BA K1 1_555 1_555
K1A O2A 1_555 1_555
K1G O2 1_555 1_555
K1S O2 1_555 1_555
K1C O1B 1_555 1_555
K1G_2 O2C 1_555 1_555
K1S_2 O2C 1_555 1_555
K1D O2M 1_555 1_555
O1E K1B 1_555 1_555
O2M K1B 1_555 1_555
O2N K1B 1_555 1_555
O2O K1B 1_555 1_555
O2V K1B 1_555 1_555
O2Z K1B 1_555 1_555
O2 C2 1_555 1_555
C2C C2A 1_555 1_555
O2C K1C 1_555 1_555
O2A K1G_2 1_555 1_555
O2A K1S_2 1_555 1_555
O2B K1B 1_555 1_555
O2B K1G 1_555 1_555
O2B K1S 1_555 1_555
K1X O2K 1_555 1_555
K1X O2L 1_555 1_555
K1X O2U 1_555 1_555
O2U K1S 1_555 1_555
K1G O2N 1_555 1_555
K1D O2N 1_555 1_555
K1D O2O 1_555 1_555
K1D O2V 1_555 1_555

#END
