
#######################################################################
#
#                 Cambridge Crystallographic Data Centre
#                                CCDC 
#
#######################################################################
#
# If this CIF has been generated from an entry in the Cambridge 
# Structural Database, then it will include bibliographic, chemical, 
# crystal, experimental, refinement or atomic coordinate data resulting 
# from the CCDC's data processing and validation procedures.
#
#######################################################################

data_ZZZITI02
_symmetry_cell_setting           monoclinic
_symmetry_space_group_name_H-M   'C 2/c'
_symmetry_Int_Tables_number      15
_space_group_name_Hall           '-C 2yn'
loop_
_symmetry_equiv_pos_site_id
_symmetry_equiv_pos_as_xyz
1 x,y,z
2 1/2+x,1/2+y,z
3 -x,y,1/2-z
4 1/2-x,1/2+y,1/2-z
5 -x,-y,-z
6 1/2-x,1/2-y,-z
7 x,-y,1/2+z
8 1/2+x,1/2-y,1/2+z
_cell_length_a                   13.885(5)
_cell_length_b                   10.625(4)
_cell_length_c                   11.500(4)
_cell_angle_alpha                90
_cell_angle_beta                 91.639(6)
_cell_angle_gamma                90
_cell_volume                     1695.88
loop_
_atom_site_label
_atom_site_type_symbol
_atom_site_fract_x
_atom_site_fract_y
_atom_site_fract_z
Cs1 Cs 0.0000 0.53104(2) 0.2500
O1 O -0.11245(18) 0.2725(2) 0.1734(2)
O2 O -0.2125(2) 0.3375(2) 0.2971(3)
O3 O -0.38691(16) 0.0263(2) 0.5068(2)
O4 O 0.30106(15) -0.1119(2) -0.0997(2)
O5 O 0.0093(2) -0.2414(3) 0.0579(4)
O6 O 0.08031(18) -0.1146(4) 0.3532(3)
N1 N -0.16027(18) 0.2560(2) 0.2595(2)
N2 N -0.31098(17) -0.0306(2) 0.5248(2)
N3 N 0.00351(16) -0.1431(3) 0.3937(2)
N4 N 0.0000 0.0946(4) 0.2500
C1 C -0.15478(18) 0.1362(3) 0.3213(2)
C2 C -0.23187(17) 0.1092(3) 0.3888(2)
H1 H -0.2844 0.1635 0.3906
C3 C -0.23032(19) -0.0001(3) 0.4541(2)
C4 C -0.15200(18) -0.0800(3) 0.4545(2)
H2 H -0.1515 -0.1524 0.5000
C5 C -0.07463(19) -0.0517(3) 0.3871(2)
C6 C -0.07089(19) 0.0569(3) 0.3120(3)
Cs1A Cs -0.5000 0.03104(2) 0.2500
Cs1_2 Cs 0.0000 -0.46896(2) 0.2500
Cs1A_2 Cs 0.5000 0.03104(2) 0.2500
Cs1G Cs 0.5000 -0.03104(2) -0.2500
Cs1G_2 Cs -0.5000 -0.03104(2) 0.7500
O1B O 0.11245(18) 0.2725(2) 0.3266(2)
O2B O 0.2125(2) 0.3375(2) 0.2029(3)
O3A O 0.11309(16) 0.5263(2) 0.5068(2)
O3B O 0.38691(16) 0.0263(2) -0.0068(2)
O3G O 0.11309(16) 0.4737(2) 0.0068(2)
O3E O -0.11309(16) 0.4737(2) 0.4932(2)
O3C O -0.11309(16) 0.5263(2) -0.0068(2)
O4G O -0.19894(15) 0.6119(2) 0.4003(2)
O4E O 0.19894(15) 0.6119(2) 0.0997(2)
O4B O -0.30106(15) -0.1119(2) 0.5997(2)
O5_2 O 0.0093(2) 0.7586(3) 0.0579(4)
O5B O -0.0093(2) 0.7586(3) 0.4421(4)
O5B_2 O -0.0093(2) -0.2414(3) 0.4421(4)
O6B O -0.08031(18) -0.1146(4) 0.1468(3)
N1B N 0.16027(18) 0.2560(2) 0.2405(2)
N2B N 0.31098(17) -0.0306(2) -0.0248(2)
N3B N -0.00351(16) -0.1431(3) 0.1063(2)
C1B C 0.15478(18) 0.1362(3) 0.1787(2)
C2B C 0.23187(17) 0.1092(3) 0.1112(2)
H1B H 0.2844 0.1635 0.1094
C3B C 0.23032(19) -0.0001(3) 0.0459(2)
C4B C 0.15200(18) -0.0800(3) 0.0455(2)
H2B H 0.1515 -0.1524 0.0000
C5B C 0.07463(19) -0.0517(3) 0.1129(2)
C6B C 0.07089(19) 0.0569(3) 0.1880(3)
loop_
_geom_bond_atom_site_label_1
_geom_bond_atom_site_label_2
_geom_bond_site_symmetry_1
_geom_bond_site_symmetry_2
Cs1 O1 1_555 1_555
O1 N1 1_555 1_555
O2 N1 1_555 1_555
O3 N2 1_555 1_555
O4 Cs1G 1_555 1_555
O5 Cs1_2 1_555 1_555
O6 N3 1_555 1_555
N1 C1 1_555 1_555
N2 C3 1_555 1_555
N3 C5 1_555 1_555
N4 C6 1_555 1_555
C1 C2 1_555 1_555
C2 H1 1_555 1_555
C3 C2 1_555 1_555
C4 C3 1_555 1_555
H2 C4 1_555 1_555
C5 C4 1_555 1_555
C6 C1 1_555 1_555
Cs1A O3 1_555 1_555
Cs1_2 O5B_2 1_555 1_555
Cs1A_2 O3B 1_555 1_555
Cs1G O3B 1_555 1_555
Cs1G_2 O3 1_555 1_555
O1B Cs1 1_555 1_555
O2B N1B 1_555 1_555
O3A Cs1 1_555 1_555
O3B N2B 1_555 1_555
O3G Cs1 1_555 1_555
O3E Cs1 1_555 1_555
O3C Cs1 1_555 1_555
O4G Cs1 1_555 1_555
O4E Cs1 1_555 1_555
O4B N2 1_555 1_555
O5_2 Cs1 1_555 1_555
O5B Cs1 1_555 1_555
O5B_2 N3 1_555 1_555
O6B N3B 1_555 1_555
N1B O1B 1_555 1_555
N2B O4 1_555 1_555
N3B O5 1_555 1_555
C1B N1B 1_555 1_555
C2B C1B 1_555 1_555
H1B C2B 1_555 1_555
C3B N2B 1_555 1_555
C4B C3B 1_555 1_555
H2B C4B 1_555 1_555
C5B N3B 1_555 1_555
C6B N4 1_555 1_555
C5 C6 1_555 1_555
Cs1G_2 O4B 1_555 1_555
C1B C6B 1_555 1_555
C2B C3B 1_555 1_555
C4B C5B 1_555 1_555
C5B C6B 1_555 1_555

#END
