
#######################################################################
#
#                 Cambridge Crystallographic Data Centre
#                                CCDC 
#
#######################################################################
#
# If this CIF has been generated from an entry in the Cambridge 
# Structural Database, then it will include bibliographic, chemical, 
# crystal, experimental, refinement or atomic coordinate data resulting 
# from the CCDC's data processing and validation procedures.
#
#######################################################################

data_ZZZJIY02
_symmetry_cell_setting           monoclinic
_symmetry_space_group_name_H-M   'P 21/c'
_symmetry_Int_Tables_number      14
_space_group_name_Hall           '-P 2ybc'
loop_
_symmetry_equiv_pos_site_id
_symmetry_equiv_pos_as_xyz
1 x,y,z
2 x,1/2-y,1/2+z
3 -x,-y,-z
4 -x,1/2+y,1/2-z
_cell_length_a                   10.817(2)
_cell_length_b                   12.637(2)
_cell_length_c                   18.848(4)
_cell_angle_alpha                90
_cell_angle_beta                 100.744(7)
_cell_angle_gamma                90
_cell_volume                     2531.25
loop_
_atom_site_label
_atom_site_type_symbol
_atom_site_fract_x
_atom_site_fract_y
_atom_site_fract_z
Zn1 Zn 0.46003(2) 0.304147(17) 0.707557(13)
Zn2 Zn 0.65367(2) 0.481874(17) 0.787884(13)
O1 O 0.45026(13) 0.43115(10) 0.64760(8)
O2 O 0.60210(13) 0.54602(11) 0.69339(8)
O3 O 0.61691(12) 0.22964(11) 0.73922(8)
O4 O 0.75707(13) 0.35670(11) 0.77930(9)
O5 O 0.36729(13) 0.34414(11) 0.78195(8)
O6 O 0.51612(13) 0.45426(11) 0.83859(8)
O7 O 0.36470(12) 0.19075(10) 0.65352(8)
O8 O 0.21739(12) 0.07047(10) 0.65586(8)
C1 C 0.51171(18) 0.51593(15) 0.64565(11)
C2 C 0.47456(18) 0.58520(15) 0.58082(11)
C3 C 0.54711(19) 0.67350(15) 0.57139(12)
H1 H 0.6179 0.6916 0.6072
C4 C 0.5159(2) 0.73483(16) 0.50974(12)
H2 H 0.5650 0.7953 0.5035
C5 C 0.4129(2) 0.70813(16) 0.45697(12)
H3 H 0.3922 0.7498 0.4145
C6 C 0.3403(2) 0.62035(16) 0.46640(12)
H4 H 0.2696 0.6022 0.4305
C7 C 0.37089(19) 0.55949(16) 0.52809(12)
H5 H 0.3209 0.4997 0.5345
C8 C 0.72668(18) 0.26217(15) 0.76509(11)
C9 C 0.82912(18) 0.18093(15) 0.77834(11)
C10 C 0.95422(19) 0.21146(16) 0.78236(12)
H6 H 0.9745 0.2840 0.7776
C11 C 1.0489(2) 0.13617(18) 0.79332(13)
H7 H 1.1337 0.1568 0.7946
C12 C 1.0201(2) 0.03092(17) 0.80233(13)
H8 H 1.0853 -0.0205 0.8098
C13 C 0.8964(2) 0.00025(17) 0.80044(13)
H9 H 0.8772 -0.0717 0.8082
C14 C 0.80055(19) 0.07486(16) 0.78723(12)
H10 H 0.7155 0.0535 0.7843
C15 C 0.40918(18) 0.41103(15) 0.83041(11)
C16 C 0.32608(17) 0.43967(15) 0.88237(11)
C17 C 0.36551(18) 0.51378(16) 0.93604(12)
H11 H 0.4440 0.5486 0.9385
C18 C 0.29055(19) 0.53712(16) 0.98616(12)
H12 H 0.3187 0.5866 1.0236
C19 C 0.17432(19) 0.48812(16) 0.98163(12)
H13 H 0.1227 0.5044 1.0158
C20 C 0.13378(19) 0.41537(17) 0.92713(13)
H14 H 0.0541 0.3822 0.9238
C21 C 0.20927(18) 0.39100(16) 0.87764(12)
H15 H 0.1814 0.3411 0.8404
C22 C 0.25144(17) 0.15996(15) 0.63681(11)
C23 C 0.15473(17) 0.22618(15) 0.59052(11)
C24 C 0.19072(19) 0.30922(15) 0.55039(12)
H16 H 0.2770 0.3282 0.5559
C25 C 0.1012(2) 0.36402(16) 0.50251(13)
H17 H 0.1261 0.4205 0.4750
C26 C -0.0248(2) 0.33703(17) 0.49442(14)
H18 H -0.0861 0.3743 0.4610
C27 C -0.06117(19) 0.25546(17) 0.53519(14)
H19 H -0.1477 0.2377 0.5302
C28 C 0.02768(18) 0.19977(16) 0.58305(13)
H20 H 0.0024 0.1437 0.6108
O8C O 0.78261(12) 0.57047(10) 0.84414(8)
Zn2C Zn 0.34633(2) -0.018126(17) 0.712116(13)
loop_
_geom_bond_atom_site_label_1
_geom_bond_atom_site_label_2
_geom_bond_site_symmetry_1
_geom_bond_site_symmetry_2
Zn1 O1 1_555 1_555
Zn2 O2 1_555 1_555
O1 C1 1_555 1_555
O2 C1 1_555 1_555
O3 Zn1 1_555 1_555
O4 Zn2 1_555 1_555
O5 Zn1 1_555 1_555
O6 Zn2 1_555 1_555
O7 Zn1 1_555 1_555
O8 C22 1_555 1_555
C1 C2 1_555 1_555
C2 C3 1_555 1_555
C3 H1 1_555 1_555
C4 C3 1_555 1_555
H2 C4 1_555 1_555
C5 C4 1_555 1_555
H3 C5 1_555 1_555
C6 C5 1_555 1_555
H4 C6 1_555 1_555
C7 C2 1_555 1_555
H5 C7 1_555 1_555
C8 O3 1_555 1_555
C9 C8 1_555 1_555
C10 C9 1_555 1_555
H6 C10 1_555 1_555
C11 C10 1_555 1_555
H7 C11 1_555 1_555
C12 C11 1_555 1_555
H8 C12 1_555 1_555
C13 C12 1_555 1_555
H9 C13 1_555 1_555
C14 C9 1_555 1_555
H10 C14 1_555 1_555
C15 O5 1_555 1_555
C16 C15 1_555 1_555
C17 C16 1_555 1_555
H11 C17 1_555 1_555
C18 C17 1_555 1_555
H12 C18 1_555 1_555
C19 C18 1_555 1_555
H13 C19 1_555 1_555
C20 C19 1_555 1_555
H14 C20 1_555 1_555
C21 C16 1_555 1_555
H15 C21 1_555 1_555
C22 O7 1_555 1_555
C23 C22 1_555 1_555
C24 C23 1_555 1_555
H16 C24 1_555 1_555
C25 C24 1_555 1_555
H17 C25 1_555 1_555
C26 C25 1_555 1_555
H18 C26 1_555 1_555
C27 C26 1_555 1_555
H19 C27 1_555 1_555
C28 C23 1_555 1_555
H20 C28 1_555 1_555
O8C Zn2 1_555 1_555
Zn2C O8 1_555 1_555
O4 C8 1_555 1_555
O6 C15 1_555 1_555
C6 C7 1_555 1_555
C13 C14 1_555 1_555
C20 C21 1_555 1_555
C27 C28 1_555 1_555

#END
