
#######################################################################
#
#                 Cambridge Crystallographic Data Centre
#                                CCDC 
#
#######################################################################
#
# If this CIF has been generated from an entry in the Cambridge 
# Structural Database, then it will include bibliographic, chemical, 
# crystal, experimental, refinement or atomic coordinate data resulting 
# from the CCDC's data processing and validation procedures.
#
#######################################################################

data_ZZZJTA01
_symmetry_cell_setting           monoclinic
_symmetry_space_group_name_H-M   'C 2'
_symmetry_Int_Tables_number      5
_space_group_name_Hall           'C 2y'
loop_
_symmetry_equiv_pos_site_id
_symmetry_equiv_pos_as_xyz
1 x,y,z
2 -x,y,-z
3 1/2+x,1/2+y,z
4 1/2-x,1/2+y,-z
_cell_length_a                   16.252(5)
_cell_length_b                   7.941(2)
_cell_length_c                   10.751(3)
_cell_angle_alpha                90
_cell_angle_beta                 127.652(4)
_cell_angle_gamma                90
_cell_volume                     1098.53
loop_
_atom_site_label
_atom_site_type_symbol
_atom_site_fract_x
_atom_site_fract_y
_atom_site_fract_z
Sr1 Sr 0.0000 0.08789(5) 0.5000
C1 C -0.2828(4) 0.4347(4) 0.0739(5)
H1 H -0.2718 0.4194 -0.0044
H2 H -0.3562 0.4184 0.0228
O1 O -0.25436(19) 0.6019(5) 0.1339(3)
C2 C -0.2215(3) 0.3044(4) 0.2003(4)
H3 H -0.2526 0.1942 0.1543
O2 O -0.1147(2) 0.2965(3) 0.2647(3)
H4 H -0.0875 0.3612 0.2256
C3 C -0.2295(4) 0.3356(5) 0.3304(5)
H5 H -0.3012 0.3175 0.2920
O3 O -0.1615(2) 0.2217(3) 0.4556(3)
H6 H -0.1758 0.1941 0.5247
C4 C -0.1960(3) 0.5167(4) 0.3900(4)
H7 H -0.1230 0.5308 0.4332
O4 O -0.2060(2) 0.5523(3) 0.5090(3)
H8 H -0.1703 0.4861 0.5820
C5 C -0.2621(3) 0.6390(4) 0.2544(4)
O5 O -0.36555(19) 0.6263(3) 0.1994(3)
H9 H -0.3678 0.5711 0.2618
C6 C -0.2261(4) 0.8200(5) 0.2975(6)
H10 H -0.2755 0.8923 0.2096
H11 H -0.2245 0.8527 0.3859
O6 O -0.1262(2) 0.8435(3) 0.3373(3)
H12 H -0.1088 0.7607 0.3080
O7 O -0.0369(2) -0.0270(3) 0.6830(3)
H13 H -0.0587 0.0314 0.7243
H14 H -0.0195 -0.1261 0.7209
C1A C 0.2828(4) 0.4347(4) 0.9261(5)
H1A H 0.2718 0.4194 1.0044
H2A H 0.3562 0.4184 0.9772
O1A O 0.25436(19) 0.6019(5) 0.8661(3)
C2A C 0.2215(3) 0.3044(4) 0.7997(4)
H3A H 0.2526 0.1942 0.8457
O2A O 0.1147(2) 0.2965(3) 0.7353(3)
H4A H 0.0875 0.3612 0.7744
C3A C 0.2295(4) 0.3356(5) 0.6696(5)
H5A H 0.3012 0.3175 0.7080
O3A O 0.1615(2) 0.2217(3) 0.5444(3)
H6A H 0.1758 0.1941 0.4753
C4A C 0.1960(3) 0.5167(4) 0.6100(4)
H7A H 0.1230 0.5308 0.5668
O4A O 0.2060(2) 0.5523(3) 0.4910(3)
H8A H 0.1703 0.4861 0.4180
C5A C 0.2621(3) 0.6390(4) 0.7456(4)
O5A O 0.36555(19) 0.6263(3) 0.8006(3)
H9A H 0.3678 0.5711 0.7382
C6A C 0.2261(4) 0.8200(5) 0.7025(6)
H10A H 0.2755 0.8923 0.7904
H11A H 0.2245 0.8527 0.6141
O6A O 0.1262(2) 0.8435(3) 0.6627(3)
H12A H 0.1088 0.7607 0.6920
O7A O 0.0369(2) -0.0270(3) 0.3170(3)
H13A H 0.0587 0.0314 0.2757
H14A H 0.0195 -0.1261 0.2791
O6_2 O -0.1262(2) -0.1565(3) 0.3373(3)
O6A_2 O 0.1262(2) -0.1565(3) 0.6627(3)
Sr1_2 Sr 0.0000 1.08789(5) 0.5000
H12_2 H -0.1088 -0.2393 0.3080
H12A_2 H 0.1088 -0.2393 0.6920
Cl1 Cl 0.02421(8) 0.60212(17) 0.79845(11)
O8 O 0.0000 0.3692(5) 1.0000
H15 H 0.0041 0.3067 0.9397
H15A H -0.0041 0.3067 1.0603
loop_
_geom_bond_atom_site_label_1
_geom_bond_atom_site_label_2
_geom_bond_site_symmetry_1
_geom_bond_site_symmetry_2
Sr1 O2 1_555 1_555
C1 H1 1_555 1_555
H2 C1 1_555 1_555
O1 C1 1_555 1_555
C2 C1 1_555 1_555
H3 C2 1_555 1_555
O2 C2 1_555 1_555
H4 O2 1_555 1_555
C3 C2 1_555 1_555
H5 C3 1_555 1_555
O3 Sr1 1_555 1_555
H6 O3 1_555 1_555
C4 C3 1_555 1_555
H7 C4 1_555 1_555
O4 C4 1_555 1_555
H8 O4 1_555 1_555
C5 O1 1_555 1_555
O5 C5 1_555 1_555
H9 O5 1_555 1_555
C6 C5 1_555 1_555
H10 C6 1_555 1_555
H11 C6 1_555 1_555
O6 C6 1_555 1_555
H12 O6 1_555 1_555
O7 Sr1 1_555 1_555
H13 O7 1_555 1_555
H14 O7 1_555 1_555
O8 H15 1_555 1_555
H15A O8 1_555 1_555
C1A H1A 1_555 1_555
H2A C1A 1_555 1_555
O1A C1A 1_555 1_555
C2A C1A 1_555 1_555
H3A C2A 1_555 1_555
O2A Sr1 1_555 1_555
H4A O2A 1_555 1_555
C3A C2A 1_555 1_555
H5A C3A 1_555 1_555
O3A Sr1 1_555 1_555
H6A O3A 1_555 1_555
C4A C3A 1_555 1_555
H7A C4A 1_555 1_555
O4A C4A 1_555 1_555
H8A O4A 1_555 1_555
C5A O1A 1_555 1_555
O5A C5A 1_555 1_555
H9A O5A 1_555 1_555
C6A C5A 1_555 1_555
H10A C6A 1_555 1_555
H11A C6A 1_555 1_555
O6A C6A 1_555 1_555
H12A O6A 1_555 1_555
O7A Sr1 1_555 1_555
H13A O7A 1_555 1_555
H14A O7A 1_555 1_555
O6_2 Sr1 1_555 1_555
O6A_2 Sr1 1_555 1_555
Sr1_2 O6 1_555 1_555
H12_2 O6_2 1_555 1_555
H12A_2 O6A_2 1_555 1_555
C3 O3 1_555 1_555
C4 C5 1_555 1_555
C2A O2A 1_555 1_555
C3A O3A 1_555 1_555
C4A C5A 1_555 1_555
O6A Sr1_2 1_555 1_555

#END
