
#######################################################################
#
#                 Cambridge Crystallographic Data Centre
#                                CCDC 
#
#######################################################################
#
# If this CIF has been generated from an entry in the Cambridge 
# Structural Database, then it will include bibliographic, chemical, 
# crystal, experimental, refinement or atomic coordinate data resulting 
# from the CCDC's data processing and validation procedures.
#
#######################################################################

data_ZZZKDE01
_symmetry_cell_setting           monoclinic
_symmetry_space_group_name_H-M   'C 2/c'
_symmetry_Int_Tables_number      15
_space_group_name_Hall           '-C 2yn'
loop_
_symmetry_equiv_pos_site_id
_symmetry_equiv_pos_as_xyz
1 x,y,z
2 1/2+x,1/2+y,z
3 -x,y,1/2-z
4 1/2-x,1/2+y,1/2-z
5 -x,-y,-z
6 1/2-x,1/2-y,-z
7 x,-y,1/2+z
8 1/2+x,1/2-y,1/2+z
_cell_length_a                   18.3976(10)
_cell_length_b                   9.6130(8)
_cell_length_c                   9.7919(6)
_cell_angle_alpha                90
_cell_angle_beta                 115.118(4)
_cell_angle_gamma                90
_cell_volume                     1567.99
loop_
_atom_site_label
_atom_site_type_symbol
_atom_site_fract_x
_atom_site_fract_y
_atom_site_fract_z
N1 N 0.0000 0.0203(4) 0.2500
H1 H 0.0364(13) 0.0739(15) 0.321(2)
H2 H 0.025(2) -0.0345(15) 0.208(4)
H1B H -0.0364(13) 0.0739(15) 0.179(2)
H2B H -0.025(2) -0.0345(15) 0.292(4)
N2 N 0.0000 0.5037(4) 0.2500
H3 H 0.0227(16) 0.451(3) 0.333(2)
H4 H -0.0369(15) 0.560(3) 0.258(4)
H3B H -0.0227(16) 0.451(3) 0.167(2)
H4B H 0.0369(15) 0.560(3) 0.242(4)
Li1 Li -0.1680(2) 0.7308(5) 0.0654(5)
O1 O -0.18233(10) 0.44544(19) 0.17402(19)
O2 O -0.26067(10) 0.61966(19) 0.04337(19)
O3 O -0.39093(11) 0.5226(2) 0.0773(2)
H5 H -0.380(2) 0.6063(13) 0.087(4)
O4 O -0.34927(12) 0.3075(2) -0.0731(2)
H6 H -0.339(3) 0.232(2) -0.101(5)
O5 O -0.46153(11) 0.1815(2) -0.0091(2)
O6 O -0.40673(10) 0.24733(19) 0.23035(18)
O7 O -0.11397(12) 0.6867(2) -0.0570(2)
H7 H -0.0658(6) 0.685(4) -0.036(4)
H8 H -0.1391(14) 0.644(3) -0.135(2)
C1 C -0.24870(15) 0.5072(3) 0.1171(3)
C2 C -0.31758(15) 0.4457(3) 0.1454(3)
H9 H -0.3010 0.4414 0.2567
C3 C -0.33567(15) 0.2996(3) 0.0821(3)
H10 H -0.2875 0.2400 0.1374
C4 C -0.40703(15) 0.2378(3) 0.1018(3)
Li1E Li -0.3320(2) 0.7692(5) -0.0654(5)
Li1C Li -0.3320(2) 0.2308(5) 0.4346(5)
Li1F Li -0.1680(2) 1.2692(5) -0.4346(5)
O1E O -0.31767(10) 1.05456(19) -0.17402(19)
O2E O -0.23933(10) 0.88034(19) -0.04337(19)
O3E O -0.10907(11) 0.9774(2) -0.0773(2)
H5E H -0.120(2) 0.8937(13) -0.087(4)
O4E O -0.15073(12) 1.1925(2) 0.0731(2)
H6E H -0.161(3) 1.268(2) 0.101(5)
O5E O -0.03847(11) 1.3185(2) 0.0091(2)
O6E O -0.09327(10) 1.25267(19) -0.23035(18)
O6C O -0.09327(10) 0.74733(19) 0.26965(18)
O6F O -0.40673(10) 0.75267(19) -0.26965(18)
O7E O -0.38603(12) 0.8133(2) 0.0570(2)
H7E H -0.4342(6) 0.815(4) 0.036(4)
H8E H -0.3609(14) 0.856(3) 0.135(2)
C1E C -0.25130(15) 0.9928(3) -0.1171(3)
C2E C -0.18242(15) 1.0543(3) -0.1454(3)
H9E H -0.1990 1.0586 -0.2567
C3E C -0.16433(15) 1.2004(3) -0.0821(3)
H10E H -0.2125 1.2600 -0.1374
C4E C -0.09297(15) 1.2622(3) -0.1018(3)
loop_
_geom_bond_atom_site_label_1
_geom_bond_atom_site_label_2
_geom_bond_site_symmetry_1
_geom_bond_site_symmetry_2
N1 H1 1_555 1_555
H2 N1 1_555 1_555
N2 H3 1_555 1_555
H4 N2 1_555 1_555
Li1 O2 1_555 1_555
O1 C1 1_555 1_555
O2 C1 1_555 1_555
O3 H5 1_555 1_555
O4 H6 1_555 1_555
O5 C4 1_555 1_555
O6 C4 1_555 1_555
O7 Li1 1_555 1_555
H7 O7 1_555 1_555
H8 O7 1_555 1_555
C1 C2 1_555 1_555
C2 O3 1_555 1_555
H9 C2 1_555 1_555
C3 O4 1_555 1_555
H10 C3 1_555 1_555
C4 C3 1_555 1_555
H1B N1 1_555 1_555
H2B N1 1_555 1_555
H3B N2 1_555 1_555
H4B N2 1_555 1_555
Li1E O2 1_555 1_555
Li1C O6 1_555 1_555
Li1F O6E 1_555 1_555
O1E C1E 1_555 1_555
O2E Li1 1_555 1_555
O3E H5E 1_555 1_555
O4E H6E 1_555 1_555
O5E C4E 1_555 1_555
O6E C4E 1_555 1_555
O6C Li1 1_555 1_555
O6F Li1E 1_555 1_555
O7E Li1E 1_555 1_555
H7E O7E 1_555 1_555
H8E O7E 1_555 1_555
C1E O2E 1_555 1_555
C2E O3E 1_555 1_555
H9E C2E 1_555 1_555
C3E O4E 1_555 1_555
H10E C3E 1_555 1_555
C4E C3E 1_555 1_555
C2 C3 1_555 1_555
Li1E O2E 1_555 1_555
C1E C2E 1_555 1_555
C2E C3E 1_555 1_555

#END
