
#######################################################################
#
#                 Cambridge Crystallographic Data Centre
#                                CCDC 
#
#######################################################################
#
# If this CIF has been generated from an entry in the Cambridge 
# Structural Database, then it will include bibliographic, chemical, 
# crystal, experimental, refinement or atomic coordinate data resulting 
# from the CCDC's data processing and validation procedures.
#
#######################################################################

data_ZZZLZE02
_symmetry_cell_setting           monoclinic
_symmetry_space_group_name_H-M   'C 2'
_symmetry_Int_Tables_number      5
_space_group_name_Hall           'C 2y'
loop_
_symmetry_equiv_pos_site_id
_symmetry_equiv_pos_as_xyz
1 x,y,z
2 1/2+x,1/2+y,z
3 -x,y,-z
4 1/2-x,1/2+y,-z
_cell_length_a                   15.483(2)
_cell_length_b                   5.046(1)
_cell_length_c                   12.591(2)
_cell_angle_alpha                90
_cell_angle_beta                 127.074(5)
_cell_angle_gamma                90
_cell_volume                     784.852
loop_
_atom_site_label
_atom_site_type_symbol
_atom_site_fract_x
_atom_site_fract_y
_atom_site_fract_z
K1 K 0.15798(5) 0.44564(14) 0.15819(6)
K2 K 0.61997(4) 0.47834(14) 0.39009(6)
O1 O 0.00000 0.0634(8) 0.00000
O2 O 0.4221(2) 0.3271(5) 0.3369(2)
O3 O 0.2539(2) 0.0573(5) 0.0970(2)
O4 O 0.3160(2) -0.2665(4) 0.3755(2)
O5 O 0.2878(2) 0.1595(5) 0.3894(2)
O6 O 0.5347(1) -0.0374(6) 0.2456(2)
O7 O 0.4080(2) 0.1983(5) 0.0694(2)
C1 C 0.3290(2) -0.0229(7) 0.3675(2)
C2 C 0.4031(2) 0.0508(6) 0.3296(3)
C3 C 0.3599(2) -0.0432(8) 0.1908(3)
C4 C 0.4405(2) 0.0454(6) 0.1656(3)
H1 H -0.022(3) -0.043(9) 0.032(3)
H2 H 0.469(2) -0.050(7) 0.392(2)
H3 H 0.360(2) -0.213(7) 0.191(2)
H4 H 0.393(2) 0.392(7) 0.363(3)
H5 H 0.224(3) -0.009(11) 0.046(4)
H1B H 0.022(3) -0.043(9) -0.032(3)
O2_2 O 0.4221(2) 1.3271(5) 0.3369(2)
O3_2 O 0.2539(2) 1.0573(5) 0.0970(2)
O4_2 O 0.3160(2) 0.7335(4) 0.3755(2)
O5_2 O 0.2878(2) 1.1595(5) 0.3894(2)
O6_2 O 0.5347(1) 0.9626(6) 0.2456(2)
O7_2 O 0.4080(2) 1.1983(5) 0.0694(2)
C1_2 C 0.3290(2) 0.9771(7) 0.3675(2)
C2_2 C 0.4031(2) 1.0508(6) 0.3296(3)
C3_2 C 0.3599(2) 0.9568(8) 0.1908(3)
C4_2 C 0.4405(2) 1.0454(6) 0.1656(3)
H2_2 H 0.469(2) 0.950(7) 0.392(2)
H3_2 H 0.360(2) 0.787(7) 0.191(2)
H4_2 H 0.393(2) 1.392(7) 0.363(3)
H5_2 H 0.224(3) 0.991(11) 0.046(4)
K1B K -0.15798(5) 0.44564(14) -0.15819(6)
K2_2 K 0.61997(4) 1.47834(14) 0.39009(6)
K2A K 0.11997(4) -0.02166(14) 0.39009(6)
O6A O 0.0347(1) 0.4626(6) 0.2456(2)
O7C O 0.0920(2) 0.6983(5) -0.0694(2)
K1A K 0.65798(5) 0.94564(14) 0.15819(6)
K2C K 0.88003(4) -0.02166(14) 0.60991(6)
K2C_2 K 0.88003(4) 0.97834(14) 0.60991(6)
O4B O 0.6840(2) 0.7335(4) 0.6245(2)
O5A O 0.7878(2) 0.6595(5) 0.3894(2)
O5B O 0.7122(2) 0.1595(5) 0.6106(2)
K1_2 K 0.15798(5) -0.55436(14) 0.15819(6)
K2B K 0.38003(4) -0.52166(14) 0.60991(6)
K2B_2 K 0.38003(4) 0.47834(14) 0.60991(6)
K1A_2 K 0.65798(5) -0.05436(14) 0.15819(6)
K2_3 K 0.61997(4) -0.52166(14) 0.39009(6)
K1C K 0.34202(5) -0.05436(14) -0.15819(6)
K1_3 K 0.15798(5) 1.44564(14) 0.15819(6)
K2A_2 K 0.11997(4) 0.97834(14) 0.39009(6)
K2B_3 K 0.38003(4) 1.47834(14) 0.60991(6)
K1C_2 K 0.34202(5) 0.94564(14) -0.15819(6)
K2C_3 K -0.11997(4) -0.02166(14) -0.39009(6)
O3B O -0.2539(2) 0.0573(5) -0.0970(2)
O4B_2 O -0.3160(2) 0.7335(4) -0.3755(2)
O5B_2 O -0.2878(2) 0.1595(5) -0.3894(2)
O6C O -0.0347(1) 0.4626(6) -0.2456(2)
O7A O -0.0920(2) 0.6983(5) 0.0694(2)
K1A_3 K 0.65798(5) 1.94564(14) 0.15819(6)
K2C_4 K 0.88003(4) 1.97834(14) 0.60991(6)
O4B_3 O 0.6840(2) 1.7335(4) 0.6245(2)
O5A_2 O 0.7878(2) 1.6595(5) 0.3894(2)
O5B_3 O 0.7122(2) 1.1595(5) 0.6106(2)
O6_3 O 0.5347(1) 1.9626(6) 0.2456(2)
H5B H -0.224(3) -0.009(11) -0.046(4)
loop_
_geom_bond_atom_site_label_1
_geom_bond_atom_site_label_2
_geom_bond_site_symmetry_1
_geom_bond_site_symmetry_2
K1 O1 1_555 1_555
K2 O2 1_555 1_555
O1 H1 1_555 1_555
O2 C2 1_555 1_555
O3 K1 1_555 1_555
O4 C1 1_555 1_555
O5 K1 1_555 1_555
O6 K2 1_555 1_555
O7 C4 1_555 1_555
C1 O5 1_555 1_555
C2 C1 1_555 1_555
C3 O3 1_555 1_555
C4 O6 1_555 1_555
H2 C2 1_555 1_555
H3 C3 1_555 1_555
H4 O2 1_555 1_555
H5 O3 1_555 1_555
H1B O1 1_555 1_555
O2_2 C2_2 1_555 1_555
O3_2 C3_2 1_555 1_555
O4_2 K1 1_555 1_555
O5_2 C1_2 1_555 1_555
O6_2 K2 1_555 1_555
O7_2 C4_2 1_555 1_555
C1_2 O4_2 1_555 1_555
C2_2 C1_2 1_555 1_555
C3_2 C2_2 1_555 1_555
C4_2 O6_2 1_555 1_555
H2_2 C2_2 1_555 1_555
H3_2 C3_2 1_555 1_555
H4_2 O2_2 1_555 1_555
H5_2 O3_2 1_555 1_555
K1B O1 1_555 1_555
K2_2 O2_2 1_555 1_555
K2A O5 1_555 1_555
O6A K1 1_555 1_555
O7C K1 1_555 1_555
K1A O6_2 1_555 1_555
K2C O5B 1_555 1_555
K2C_2 O5A 1_555 1_555
O4B K2 1_555 1_555
O5A K2 1_555 1_555
O5B K2 1_555 1_555
K1_2 O4 1_555 1_555
K2B O4 1_555 1_555
K2B_2 O5 1_555 1_555
K1A_2 O6 1_555 1_555
K2_3 O6 1_555 1_555
K1C O7 1_555 1_555
K1_3 O3_2 1_555 1_555
K2A_2 O5_2 1_555 1_555
K2B_3 O5_2 1_555 1_555
K1C_2 O7_2 1_555 1_555
K2C_3 O5B_2 1_555 1_555
O3B K1B 1_555 1_555
O4B_2 K1B 1_555 1_555
O5B_2 K1B 1_555 1_555
O6C K1B 1_555 1_555
O7A K1B 1_555 1_555
K1A_3 O5A_2 1_555 1_555
K2C_4 O5A_2 1_555 1_555
O4B_3 K2_2 1_555 1_555
O5A_2 K2_2 1_555 1_555
O5B_3 K2_2 1_555 1_555
O6_3 K2_2 1_555 1_555
H5B O3B 1_555 1_555
C2 C3 1_555 1_555
C3 C4 1_555 1_555
O4_2 K2B_2 1_555 1_555
O5_2 K1_3 1_555 1_555
O6_2 K2_2 1_555 1_555
C3_2 C4_2 1_555 1_555
K2A O6A 1_555 1_555
O6A K2A_2 1_555 1_555
K1A O5A 1_555 1_555
K2C_2 O5B_3 1_555 1_555
K2C_3 O6C 1_555 1_555
K1A_3 O6_3 1_555 1_555

#END
