
#######################################################################
#
#                 Cambridge Crystallographic Data Centre
#                                CCDC 
#
#######################################################################
#
# If this CIF has been generated from an entry in the Cambridge 
# Structural Database, then it will include bibliographic, chemical, 
# crystal, experimental, refinement or atomic coordinate data resulting 
# from the CCDC's data processing and validation procedures.
#
#######################################################################

data_ZZZODM01
_symmetry_cell_setting           monoclinic
_symmetry_space_group_name_H-M   'P 21/a'
_symmetry_Int_Tables_number      14
_space_group_name_Hall           '-P 2yab'
loop_
_symmetry_equiv_pos_site_id
_symmetry_equiv_pos_as_xyz
1 x,y,z
2 1/2-x,1/2+y,-z
3 -x,-y,-z
4 1/2+x,1/2-y,z
_cell_length_a                   9.9060(10)
_cell_length_b                   7.1630(10)
_cell_length_c                   45.580(6)
_cell_angle_alpha                90
_cell_angle_beta                 92.780(10)
_cell_angle_gamma                90
_cell_volume                     3230.4
loop_
_atom_site_label
_atom_site_type_symbol
_atom_site_fract_x
_atom_site_fract_y
_atom_site_fract_z
C1 C 0.3773(1) 0.8154(20) 0.0608(3)
C2 C 0.4477(13) 0.7458(17) 0.0892(2)
C3 C 0.3864(11) 0.8284(18) 0.1163(2)
C4 C 0.4497(12) 0.7494(18) 0.1445(2)
C5 C 0.3934(13) 0.8300(19) 0.1718(2)
C6 C 0.4574(14) 0.7464(19) 0.2004(3)
C7 C 0.4030(12) 0.8298(19) 0.2283(2)
C8 C 0.4684(12) 0.7496(17) 0.2566(2)
C9 C 0.4107(13) 0.8331(19) 0.2846(2)
C10 C 0.4796(13) 0.7490(17) 0.3126(2)
C11 C 0.4249(12) 0.8312(18) 0.3397(2)
C12 C 0.4931(14) 0.7485(18) 0.3682(2)
C13 C 0.4362(13) 0.8349(19) 0.3957(2)
C14 C 0.5043(14) 0.7540(19) 0.4239(2)
C15 C 0.4497(14) 0.8361(21) 0.4521(2)
C16 C 0.5183(18) 0.7490(20) 0.4799(2)
O1 O 0.2579(8) 0.8437(14) 0.0583(2)
O2 O 0.4538(9) 0.8214(14) 0.0381(2)
C17 C 0.1326(15) 1.3008(24) 0.0287(3)
C18 C 0.1944(12) 1.3498(22) 0.0582(2)
C19 C 0.1319(14) 1.2647(18) 0.0847(2)
C20 C 0.1960(12) 1.3284(19) 0.1135(2)
C21 C 0.1440(13) 1.2493(19) 0.1410(2)
C22 C 0.2061(12) 1.3262(19) 0.1691(2)
C23 C 0.1538(12) 1.2442(17) 0.1972(2)
C24 C 0.2164(12) 1.3289(19) 0.2255(2)
C25 C 0.1633(13) 1.2491(18) 0.2533(2)
C26 C 0.2293(13) 1.3280(18) 0.2817(2)
C27 C 0.1748(13) 1.2476(19) 0.3095(2)
C28 C 0.2387(12) 1.3294(19) 0.3373(2)
C29 C 0.1869(14) 1.2483(18) 0.3654(2)
C30 C 0.2498(13) 1.3294(19) 0.3938(2)
C31 C 0.1947(15) 1.2428(19) 0.4213(3)
C32 C 0.2637(14) 1.3238(23) 0.4493(3)
O3 O 0.0427(10) 1.1778(14) 0.0250(2)
O4 O 0.1760(8) 1.3993(14) 0.0072(2)
Na1 Na 0.1162(5) 0.8622(8) 0.0165(1)
H1 H 0.5447(13) 0.7792(17) 0.0892(2)
H2 H 0.4410(13) 0.6080(17) 0.0899(2)
H3 H 0.3987(11) 0.9655(18) 0.1162(2)
H4 H 0.2881(11) 0.8025(18) 0.1155(2)
H5 H 0.4362(12) 0.6125(18) 0.1445(2)
H6 H 0.5483(12) 0.7731(18) 0.1449(2)
H7 H 0.2947(13) 0.8080(19) 0.1713(2)
H8 H 0.4083(13) 0.9667(19) 0.1720(2)
H9 H 0.4410(14) 0.6100(19) 0.2004(3)
H10 H 0.5563(14) 0.7662(19) 0.2007(3)
H11 H 0.4176(12) 0.9665(19) 0.2282(2)
H12 H 0.3043(12) 0.8077(19) 0.2283(2)
H13 H 0.5669(12) 0.7736(17) 0.2570(2)
H14 H 0.4549(12) 0.6127(17) 0.2568(2)
H15 H 0.4242(13) 0.9700(19) 0.2847(2)
H16 H 0.3123(13) 0.8085(19) 0.2845(2)
H17 H 0.4653(13) 0.6122(17) 0.3126(2)
H18 H 0.5781(3) 0.7723(17) 0.3126(2)
H19 H 0.3263(12) 0.8078(18) 0.3396(2)
H20 H 0.4389(12) 0.9680(18) 0.3395(2)
H21 H 0.4787(14) 0.6118(18) 0.3685(2)
H22 H 0.5917(14) 0.7716(18) 0.3684(2)
H23 H 0.3377(13) 0.8112(19) 0.3956(2)
H24 H 0.4502(13) 0.9717(19) 0.3954(2)
H25 H 0.4908(14) 0.6170(19) 0.4240(2)
H26 H 0.6027(14) 0.7779(19) 0.4238(2)
H27 H 0.3511(14) 0.8141(21) 0.4522(2)
H28 H 0.4650(14) 0.9727(21) 0.4524(2)
H29 H 0.4804(18) 0.8046(20) 0.4974(2)
H30 H 0.6157(18) 0.7732(20) 0.4802(2)
H31 H 0.5022(18) 0.6140(20) 0.4799(2)
H32 H 0.2908(12) 1.3130(22) 0.0587(2)
H33 H 0.1914(12) 1.4873(22) 0.0604(2)
H34 H 0.1393(14) 1.1272(18) 0.0834(2)
H35 H 0.0346(14) 1.2968(18) 0.0841(2)
H36 H 0.1871(12) 1.4658(19) 0.1145(2)
H37 H 0.2938(12) 1.3000(19) 0.1134(2)
H38 H 0.0452(13) 1.2710(19) 0.1407(2)
H39 H 0.1585(13) 1.1126(19) 0.1408(2)
H40 H 0.3049(12) 1.3057(19) 0.1693(2)
H41 H 0.1907(12) 1.4628(19) 0.1694(2)
H42 H 0.0547(12) 1.2618(17) 0.1970(2)
H43 H 0.1716(12) 1.1082(17) 0.1974(2)
H44 H 0.1995(12) 1.4652(19) 0.2252(2)
H45 H 0.3154(12) 1.3099(19) 0.2258(2)
H46 H 0.0648(13) 1.2725(18) 0.2533(2)
H47 H 0.1768(13) 1.1121(18) 0.2532(2)
H48 H 0.2162(13) 1.4650(18) 0.2818(2)
H49 H 0.3277(13) 1.3039(18) 0.2818(2)
H50 H 0.1898(13) 1.1110(19) 0.3097(2)
H51 H 0.0791(13) 1.2695(19) 0.3093(2)
H52 H 0.3376(12) 1.3095(19) 0.3373(2)
H53 H 0.2225(12) 1.4658(19) 0.3372(2)
H54 H 0.2032(14) 1.1119(18) 0.3654(2)
H55 H 0.0879(14) 1.2677(18) 0.3653(2)
H56 H 0.3488(13) 1.3101(19) 0.3941(2)
H57 H 0.2330(13) 1.4656(19) 0.3940(2)
H58 H 0.0962(15) 1.2659(19) 0.4215(3)
H59 H 0.2091(15) 1.1061(19) 0.4209(3)
H60 H 0.2259(14) 1.2655(23) 0.4665(3)
H61 H 0.3610(14) 1.2990(23) 0.4493(3)
H62 H 0.2483(14) 1.4589(23) 0.4499(3)
Na1C Na 0.6162(5) 0.6378(8) 0.0165(1)
Na1B Na -0.1162(5) 1.1378(8) -0.0165(1)
Na1A Na 0.3838(5) 1.3622(8) -0.0165(1)
O2C O -0.0462(9) 0.6786(14) 0.0381(2)
O3B O -0.0427(10) 0.8222(14) -0.0250(2)
O4A O 0.3240(8) 0.8993(14) -0.0072(2)
loop_
_geom_bond_atom_site_label_1
_geom_bond_atom_site_label_2
_geom_bond_site_symmetry_1
_geom_bond_site_symmetry_2
C1 C2 1_555 1_555
C2 C3 1_555 1_555
C3 C4 1_555 1_555
C4 C5 1_555 1_555
C5 C6 1_555 1_555
C6 C7 1_555 1_555
C7 C8 1_555 1_555
C8 C9 1_555 1_555
C9 C10 1_555 1_555
C10 C11 1_555 1_555
C11 C12 1_555 1_555
C12 C13 1_555 1_555
C13 C14 1_555 1_555
C14 C15 1_555 1_555
C15 C16 1_555 1_555
C16 H29 1_555 1_555
O1 C1 1_555 1_555
O2 C1 1_555 1_555
C17 C18 1_555 1_555
C18 C19 1_555 1_555
C19 C20 1_555 1_555
C20 C21 1_555 1_555
C21 C22 1_555 1_555
C22 C23 1_555 1_555
C23 C24 1_555 1_555
C24 C25 1_555 1_555
C25 C26 1_555 1_555
C26 C27 1_555 1_555
C27 C28 1_555 1_555
C28 C29 1_555 1_555
C29 C30 1_555 1_555
C30 C31 1_555 1_555
C31 C32 1_555 1_555
C32 H60 1_555 1_555
O3 C17 1_555 1_555
O4 C17 1_555 1_555
Na1 O1 1_555 1_555
H1 C2 1_555 1_555
H2 C2 1_555 1_555
H3 C3 1_555 1_555
H4 C3 1_555 1_555
H5 C4 1_555 1_555
H6 C4 1_555 1_555
H7 C5 1_555 1_555
H8 C5 1_555 1_555
H9 C6 1_555 1_555
H10 C6 1_555 1_555
H11 C7 1_555 1_555
H12 C7 1_555 1_555
H13 C8 1_555 1_555
H14 C8 1_555 1_555
H15 C9 1_555 1_555
H16 C9 1_555 1_555
H17 C10 1_555 1_555
H18 C10 1_555 1_555
H19 C11 1_555 1_555
H20 C11 1_555 1_555
H21 C12 1_555 1_555
H22 C12 1_555 1_555
H23 C13 1_555 1_555
H24 C13 1_555 1_555
H25 C14 1_555 1_555
H26 C14 1_555 1_555
H27 C15 1_555 1_555
H28 C15 1_555 1_555
H30 C16 1_555 1_555
H31 C16 1_555 1_555
H32 C18 1_555 1_555
H33 C18 1_555 1_555
H34 C19 1_555 1_555
H35 C19 1_555 1_555
H36 C20 1_555 1_555
H37 C20 1_555 1_555
H38 C21 1_555 1_555
H39 C21 1_555 1_555
H40 C22 1_555 1_555
H41 C22 1_555 1_555
H42 C23 1_555 1_555
H43 C23 1_555 1_555
H44 C24 1_555 1_555
H45 C24 1_555 1_555
H46 C25 1_555 1_555
H47 C25 1_555 1_555
H48 C26 1_555 1_555
H49 C26 1_555 1_555
H50 C27 1_555 1_555
H51 C27 1_555 1_555
H52 C28 1_555 1_555
H53 C28 1_555 1_555
H54 C29 1_555 1_555
H55 C29 1_555 1_555
H56 C30 1_555 1_555
H57 C30 1_555 1_555
H58 C31 1_555 1_555
H59 C31 1_555 1_555
H61 C32 1_555 1_555
H62 C32 1_555 1_555
Na1C O2 1_555 1_555
Na1B O3 1_555 1_555
Na1A O4 1_555 1_555
O2C Na1 1_555 1_555
O3B Na1 1_555 1_555
O4A Na1 1_555 1_555
O3 Na1 1_555 1_555
Na1B O3B 1_555 1_555

#END
