
#######################################################################
#
#                 Cambridge Crystallographic Data Centre
#                                CCDC 
#
#######################################################################
#
# If this CIF has been generated from an entry in the Cambridge 
# Structural Database, then it will include bibliographic, chemical, 
# crystal, experimental, refinement or atomic coordinate data resulting 
# from the CCDC's data processing and validation procedures.
#
#######################################################################

data_ZZZPQG01
_symmetry_cell_setting           orthorhombic
_symmetry_space_group_name_H-M   'P 21 21 21'
_symmetry_Int_Tables_number      19
_space_group_name_Hall           'P 2ac 2ab'
loop_
_symmetry_equiv_pos_site_id
_symmetry_equiv_pos_as_xyz
1 x,y,z
2 1/2-x,-y,1/2+z
3 -x,1/2+y,1/2-z
4 1/2+x,1/2-y,-z
_cell_length_a                   7.7515(12)
_cell_length_b                   20.604(3)
_cell_length_c                   22.149(3)
_cell_angle_alpha                90
_cell_angle_beta                 90
_cell_angle_gamma                90
_cell_volume                     3537.46
loop_
_atom_site_label
_atom_site_type_symbol
_atom_site_fract_x
_atom_site_fract_y
_atom_site_fract_z
Pb1 Pb 0.490110(17) 0.134142(5) 0.266206(5)
O1 O 0.3167(3) 0.04524(11) 0.29316(12)
O2 O 0.6220(3) 0.08659(11) 0.35245(12)
O3 O 0.6895(3) 0.06110(11) 0.22634(12)
O4 O 0.3567(3) 0.08717(11) 0.17383(12)
C1 C 0.2340(5) -0.06300(16) 0.30591(18)
H1 H 0.2857 -0.1041 0.3190
H2 H 0.2043 -0.0657 0.2630
H3 H 0.1294 -0.0546 0.3295
C2 C 0.3609(5) -0.00858(16) 0.31555(16)
C3 C 0.5152(7) -0.02018(14) 0.34818(14)
H4 H 0.5397 -0.0637 0.3595
C4 C 0.6327(5) 0.02699(16) 0.36471(16)
C5 C 0.7921(5) 0.00772(17) 0.39935(16)
C6 C 0.9264(5) 0.05206(18) 0.40306(16)
H5 H 0.9146 0.0934 0.3846
C7 C 1.0800(5) 0.0365(2) 0.43387(19)
H6 H 1.1731 0.0665 0.4346
C8 C 1.0949(5) -0.02282(18) 0.46310(17)
H7 H 1.1968 -0.0331 0.4849
C9 C 0.9612(5) -0.06672(18) 0.46030(16)
H8 H 0.9715 -0.1074 0.4802
C10 C 0.8110(5) -0.05202(18) 0.42848(16)
H9 H 0.7204 -0.0830 0.4266
C11 C 0.8111(4) -0.04068(16) 0.20434(18)
H10 H 0.9097 -0.0258 0.1803
H11 H 0.7735 -0.0833 0.1898
H12 H 0.8451 -0.0440 0.2468
C12 C 0.6648(5) 0.00720(16) 0.19830(16)
C13 C 0.5186(7) -0.00880(15) 0.16407(14)
H13 H 0.5155 -0.0511 0.1471
C14 C 0.3778(5) 0.03108(17) 0.15253(15)
C15 C 0.2336(5) 0.00642(17) 0.11228(17)
C16 C 0.1060(5) 0.04999(18) 0.09568(16)
H14 H 0.1121 0.0938 0.1088
C17 C -0.0326(6) 0.02943(18) 0.05942(16)
H15 H -0.1209 0.0594 0.0489
C18 C -0.0417(5) -0.03383(18) 0.03894(16)
H16 H -0.1352 -0.0476 0.0144
C19 C 0.0892(5) -0.07714(19) 0.05502(17)
H17 H 0.0859 -0.1205 0.0404
C20 C 0.2231(5) -0.05775(17) 0.09192(17)
H18 H 0.3089 -0.0882 0.1036
Pb2 Pb 0.014220(16) 0.119040(5) 0.239160(5)
O5 O 0.1855(3) 0.20734(11) 0.21191(11)
O6 O -0.1223(3) 0.16626(11) 0.15365(11)
O7 O 0.8178(3) 0.19191(11) 0.27941(11)
O8 O 1.1495(3) 0.16646(11) 0.33091(11)
C21 C 0.2727(5) 0.31511(16) 0.19618(18)
H19 H 0.3052 0.3183 0.2388
H20 H 0.2206 0.3561 0.1831
H21 H 0.3756 0.3062 0.1718
C22 C 0.1445(5) 0.26087(16) 0.18811(17)
C23 C -0.0054(8) 0.27279(14) 0.15598(13)
H22 H -0.0257 0.3161 0.1432
C24 C -0.1318(5) 0.22538(17) 0.14043(16)
C25 C -0.2887(5) 0.24529(17) 0.10482(17)
C26 C -0.4252(5) 0.20166(18) 0.10081(17)
H23 H -0.4166 0.1606 0.1201
C27 C -0.5714(5) 0.21716(19) 0.06953(19)
H24 H -0.6638 0.1869 0.0677
C28 C -0.5866(5) 0.27604(19) 0.04065(18)
H25 H -0.6888 0.2863 0.0190
C29 C -0.4523(5) 0.32021(19) 0.04337(16)
H26 H -0.4613 0.3607 0.0231
C30 C -0.3046(5) 0.30521(17) 0.07580(16)
H27 H -0.2134 0.3359 0.0783
C31 C 0.6961(5) 0.29408(16) 0.30083(18)
H28 H 0.6542 0.2950 0.2591
H29 H 0.7375 0.3373 0.3122
H30 H 0.6018 0.2812 0.3278
C32 C 0.8411(5) 0.24607(16) 0.30603(16)
C33 C 0.9844(7) 0.26295(15) 0.33956(14)
H31 H 0.9863 0.3054 0.3563
C34 C 1.1295(5) 0.22262(17) 0.35135(16)
C35 C 1.2730(5) 0.24729(18) 0.39257(18)
C36 C 1.3979(5) 0.20372(19) 0.41102(17)
H32 H 1.3922 0.1598 0.3981
C37 C 1.5307(6) 0.22359(19) 0.44815(17)
H33 H 1.6156 0.1931 0.4606
C38 C 1.5416(5) 0.2868(2) 0.46728(17)
H34 H 1.6335 0.2999 0.4929
C39 C 1.4189(5) 0.3313(2) 0.44921(17)
H35 H 1.4267 0.3751 0.4623
C40 C 1.2840(5) 0.31219(18) 0.41194(16)
H36 H 1.1995 0.3428 0.3996
Pb1_2 Pb 1.490110(17) 0.134142(5) 0.266206(5)
O3_2 O -0.3105(3) 0.06110(11) 0.22634(12)
Pb2_2 Pb 1.014220(16) 0.119040(5) 0.239160(5)
O7_2 O -0.1822(3) 0.19191(11) 0.27941(11)
O8_2 O 0.1495(3) 0.16646(11) 0.33091(11)
loop_
_geom_bond_atom_site_label_1
_geom_bond_atom_site_label_2
_geom_bond_site_symmetry_1
_geom_bond_site_symmetry_2
Pb1 O1 1_555 1_555
O1 C2 1_555 1_555
O2 Pb1 1_555 1_555
O3 Pb1 1_555 1_555
O4 Pb1 1_555 1_555
C1 H1 1_555 1_555
H2 C1 1_555 1_555
H3 C1 1_555 1_555
C2 C1 1_555 1_555
C3 C2 1_555 1_555
H4 C3 1_555 1_555
C4 O2 1_555 1_555
C5 C4 1_555 1_555
C6 C5 1_555 1_555
H5 C6 1_555 1_555
C7 C6 1_555 1_555
H6 C7 1_555 1_555
C8 C7 1_555 1_555
H7 C8 1_555 1_555
C9 C8 1_555 1_555
H8 C9 1_555 1_555
C10 C5 1_555 1_555
H9 C10 1_555 1_555
C11 H10 1_555 1_555
H11 C11 1_555 1_555
H12 C11 1_555 1_555
C12 O3 1_555 1_555
C13 C12 1_555 1_555
H13 C13 1_555 1_555
C14 O4 1_555 1_555
C15 C14 1_555 1_555
C16 C15 1_555 1_555
H14 C16 1_555 1_555
C17 C16 1_555 1_555
H15 C17 1_555 1_555
C18 C17 1_555 1_555
H16 C18 1_555 1_555
C19 C18 1_555 1_555
H17 C19 1_555 1_555
C20 C15 1_555 1_555
H18 C20 1_555 1_555
Pb2 O1 1_555 1_555
O5 Pb1 1_555 1_555
O6 Pb2 1_555 1_555
O7 Pb1 1_555 1_555
O8 C34 1_555 1_555
C21 H19 1_555 1_555
H20 C21 1_555 1_555
H21 C21 1_555 1_555
C22 O5 1_555 1_555
C23 C22 1_555 1_555
H22 C23 1_555 1_555
C24 O6 1_555 1_555
C25 C24 1_555 1_555
C26 C25 1_555 1_555
H23 C26 1_555 1_555
C27 C26 1_555 1_555
H24 C27 1_555 1_555
C28 C27 1_555 1_555
H25 C28 1_555 1_555
C29 C28 1_555 1_555
H26 C29 1_555 1_555
C30 C25 1_555 1_555
H27 C30 1_555 1_555
C31 H28 1_555 1_555
H29 C31 1_555 1_555
H30 C31 1_555 1_555
C32 O7 1_555 1_555
C33 C32 1_555 1_555
H31 C33 1_555 1_555
C34 C33 1_555 1_555
C35 C34 1_555 1_555
C36 C35 1_555 1_555
H32 C36 1_555 1_555
C37 C36 1_555 1_555
H33 C37 1_555 1_555
C38 C37 1_555 1_555
H34 C38 1_555 1_555
C39 C38 1_555 1_555
H35 C39 1_555 1_555
C40 C35 1_555 1_555
H36 C40 1_555 1_555
Pb1_2 O8 1_555 1_555
O3_2 Pb2 1_555 1_555
Pb2_2 O3 1_555 1_555
O7_2 Pb2 1_555 1_555
O8_2 Pb1 1_555 1_555
O4 Pb2 1_555 1_555
C3 C4 1_555 1_555
C9 C10 1_555 1_555
C11 C12 1_555 1_555
C13 C14 1_555 1_555
C19 C20 1_555 1_555
Pb2 O5 1_555 1_555
Pb2 O8_2 1_555 1_555
O7 Pb2_2 1_555 1_555
O8 Pb2_2 1_555 1_555
C21 C22 1_555 1_555
C23 C24 1_555 1_555
C29 C30 1_555 1_555
C31 C32 1_555 1_555
C39 C40 1_555 1_555

#END
