
#######################################################################
#
#                 Cambridge Crystallographic Data Centre
#                                CCDC 
#
#######################################################################
#
# If this CIF has been generated from an entry in the Cambridge 
# Structural Database, then it will include bibliographic, chemical, 
# crystal, experimental, refinement or atomic coordinate data resulting 
# from the CCDC's data processing and validation procedures.
#
#######################################################################

data_ZZZRZW05
_symmetry_cell_setting           orthorhombic
_symmetry_space_group_name_H-M   'P 21 21 21'
_symmetry_Int_Tables_number      19
_space_group_name_Hall           'P 2ac 2ab'
loop_
_symmetry_equiv_pos_site_id
_symmetry_equiv_pos_as_xyz
1 x,y,z
2 1/2-x,-y,1/2+z
3 -x,1/2+y,1/2-z
4 1/2+x,1/2-y,-z
_cell_length_a                   7.6270(10)
_cell_length_b                   7.7820(10)
_cell_length_c                   10.6360(10)
_cell_angle_alpha                90
_cell_angle_beta                 90
_cell_angle_gamma                90
_cell_volume                     631.282
loop_
_atom_site_label
_atom_site_type_symbol
_atom_site_fract_x
_atom_site_fract_y
_atom_site_fract_z
C1 C 0.96278(19) 0.64091(18) 0.25894(14)
O1 O 1.04981(13) 0.61739(14) 0.36495(10)
H1 H 1.167(3) 0.647(3) 0.3582(19)
O2 O 1.02402(13) 0.70681(14) 0.16497(10)
C2 C 0.77394(19) 0.57740(19) 0.26926(13)
H2 H 0.7750 0.4565 0.3012
O3 O 0.68880(15) 0.58048(14) 0.14941(9)
H3 H 0.653(3) 0.480(3) 0.1390(18)
C3 C 0.67408(19) 0.69053(18) 0.36352(12)
H4 H 0.7294 0.6747 0.4480
O4 O 0.68632(14) 0.86672(12) 0.33177(10)
H5 H 0.635(2) 0.879(2) 0.2622(16)
C4 C 0.48394(19) 0.62402(19) 0.37147(13)
O5 O 0.36127(13) 0.73051(13) 0.34721(10)
O6 O 0.46166(14) 0.46897(13) 0.39717(10)
K1 K 1.16538(4) 0.32794(4) 0.53256(3)
K1A K 1.33462(4) 0.67206(4) 0.03256(3)
K1B K 0.83462(4) 0.82794(4) -0.03256(3)
K1A_2 K 0.33462(4) 0.67206(4) 0.03256(3)
K1C K 0.66538(4) 1.17206(4) 0.46744(3)
K1_2 K 0.16538(4) 0.32794(4) 0.53256(3)
K1C_2 K 0.66538(4) 0.17206(4) 0.46744(3)
O2A O 1.47598(13) 0.29319(14) 0.66497(10)
O2B O 0.97598(13) 0.20681(14) 0.33503(10)
O3A O 0.81120(15) 0.41952(14) 0.64941(9)
O3B O 1.31120(15) 0.08048(14) 0.35059(9)
O4C O 1.18632(14) 0.63328(12) 0.66823(10)
O6_2 O 1.46166(14) 0.46897(13) 0.39717(10)
O6C O 0.96166(14) 0.03103(13) 0.60283(10)
K1C_3 K 1.66538(4) 0.17206(4) 0.46744(3)
H3A H 0.847(3) 0.520(3) 0.6390(18)
H3B H 1.347(3) -0.020(3) 0.3610(18)
H5C H 1.135(2) 0.621(2) 0.7378(16)
loop_
_geom_bond_atom_site_label_1
_geom_bond_atom_site_label_2
_geom_bond_site_symmetry_1
_geom_bond_site_symmetry_2
C1 O1 1_555 1_555
O1 H1 1_555 1_555
O2 C1 1_555 1_555
C2 C1 1_555 1_555
H2 C2 1_555 1_555
O3 C2 1_555 1_555
H3 O3 1_555 1_555
C3 C2 1_555 1_555
H4 C3 1_555 1_555
O4 C3 1_555 1_555
H5 O4 1_555 1_555
C4 C3 1_555 1_555
O5 C4 1_555 1_555
O6 C4 1_555 1_555
K1 O1 1_555 1_555
K1A O2 1_555 1_555
K1B O2 1_555 1_555
K1A_2 O3 1_555 1_555
K1C O4 1_555 1_555
K1_2 O6 1_555 1_555
K1C_2 O6 1_555 1_555
O2A K1 1_555 1_555
O2B K1 1_555 1_555
O3A K1 1_555 1_555
O3B K1 1_555 1_555
O4C K1 1_555 1_555
O6_2 K1 1_555 1_555
O6C K1 1_555 1_555
K1C_3 O2A 1_555 1_555
H3A O3A 1_555 1_555
H3B O3B 1_555 1_555
H5C O4C 1_555 1_555
O3 K1B 1_555 1_555
K1C_2 O2B 1_555 1_555
K1C_2 O3A 1_555 1_555
K1C_2 O6C 1_555 1_555
O3B K1C_3 1_555 1_555
O6_2 K1C_3 1_555 1_555

#END
