
#######################################################################
#
#                 Cambridge Crystallographic Data Centre
#                                CCDC 
#
#######################################################################
#
# If this CIF has been generated from an entry in the Cambridge 
# Structural Database, then it will include bibliographic, chemical, 
# crystal, experimental, refinement or atomic coordinate data resulting 
# from the CCDC's data processing and validation procedures.
#
#######################################################################

data_ZZZSSS01
_symmetry_cell_setting           orthorhombic
_symmetry_space_group_name_H-M   'P 21 21 21'
_symmetry_Int_Tables_number      19
_space_group_name_Hall           'P 2ac 2ab'
loop_
_symmetry_equiv_pos_site_id
_symmetry_equiv_pos_as_xyz
1 x,y,z
2 1/2+x,1/2-y,-z
3 -x,1/2+y,1/2-z
4 1/2-x,-y,1/2+z
_cell_length_a                   7.2425(6)
_cell_length_b                   8.676(1)
_cell_length_c                   10.592(1)
_cell_angle_alpha                90
_cell_angle_beta                 90
_cell_angle_gamma                90
_cell_volume                     665.558
loop_
_atom_site_label
_atom_site_type_symbol
_atom_site_fract_x
_atom_site_fract_y
_atom_site_fract_z
Na1 Na 0.4109(1) 0.2074(1) 0.0732(1)
C1 C 0.0070(3) 0.2685(2) 0.2382(2)
O1 O 0.0846(2) 0.2175(2) 0.3413(2)
O2 O 0.0884(2) 0.3120(2) 0.1446(2)
C2 C -0.2040(3) 0.2637(2) 0.2439(2)
O3 O -0.2811(2) 0.3310(2) 0.1341(2)
C3 C -0.2754(2) 0.3418(2) 0.3632(2)
O4 O -0.2121(2) 0.4946(2) 0.3709(2)
C4 C -0.4884(3) 0.3428(2) 0.3643(2)
O5 O -0.5692(2) 0.4641(2) 0.3897(2)
O6 O -0.5636(2) 0.2144(2) 0.3394(2)
O7 O 0.4010(2) 0.4749(2) 0.0090(2)
H1 H 0.223(4) 0.220(4) 0.327(3)
H2 H -0.234(2) 0.159(2) 0.245(2)
H3 H -0.258(3) 0.421(4) 0.136(3)
H4 H -0.237(3) 0.280(3) 0.437(2)
H5 H -0.117(4) 0.488(3) 0.415(3)
H6 H 0.437(5) 0.539(4) 0.062(3)
H7 H 0.306(4) 0.501(3) 0.021(3)
Na1A Na -0.0891(1) 0.2926(1) -0.0732(1)
Na1_2 Na -0.5891(1) 0.2074(1) 0.0732(1)
Na1B Na -0.4109(1) 0.7074(1) 0.4268(1)
O2A O 0.5884(2) 0.1880(2) -0.1446(2)
O3_2 O 0.7189(2) 0.3310(2) 0.1341(2)
O3A O 0.2189(2) 0.1690(2) -0.1341(2)
O4B O 0.2121(2) -0.0054(2) 0.1291(2)
O5B O 0.5692(2) -0.0359(2) 0.1103(2)
O6_2 O 0.4364(2) 0.2144(2) 0.3394(2)
H3_2 H 0.742(3) 0.421(4) 0.136(3)
H3A H 0.242(3) 0.079(4) -0.136(3)
H5B H 0.117(4) -0.012(3) 0.085(3)
loop_
_geom_bond_atom_site_label_1
_geom_bond_atom_site_label_2
_geom_bond_site_symmetry_1
_geom_bond_site_symmetry_2
Na1 O2 1_555 1_555
C1 O1 1_555 1_555
O1 H1 1_555 1_555
O2 C1 1_555 1_555
C2 C1 1_555 1_555
O3 C2 1_555 1_555
C3 C2 1_555 1_555
O4 C3 1_555 1_555
C4 C3 1_555 1_555
O5 C4 1_555 1_555
O6 C4 1_555 1_555
O7 Na1 1_555 1_555
H2 C2 1_555 1_555
H3 O3 1_555 1_555
H4 C3 1_555 1_555
H5 O4 1_555 1_555
H6 O7 1_555 1_555
H7 O7 1_555 1_555
Na1A O2 1_555 1_555
Na1_2 O3 1_555 1_555
Na1B O4 1_555 1_555
O2A Na1 1_555 1_555
O3_2 Na1 1_555 1_555
O3A Na1 1_555 1_555
O4B Na1 1_555 1_555
O5B Na1 1_555 1_555
O6_2 Na1 1_555 1_555
H3_2 O3_2 1_555 1_555
H3A O3A 1_555 1_555
H5B O4B 1_555 1_555
O3 Na1A 1_555 1_555
O5 Na1B 1_555 1_555
O6 Na1_2 1_555 1_555
Na1A O3A 1_555 1_555

#END
