
#######################################################################
#
#                 Cambridge Crystallographic Data Centre
#                                CCDC 
#
#######################################################################
#
# If this CIF has been generated from an entry in the Cambridge 
# Structural Database, then it will include bibliographic, chemical, 
# crystal, experimental, refinement or atomic coordinate data resulting 
# from the CCDC's data processing and validation procedures.
#
#######################################################################

data_ZZZTLO02
_symmetry_cell_setting           monoclinic
_symmetry_space_group_name_H-M   'C 2/c'
_symmetry_Int_Tables_number      15
_space_group_name_Hall           '-C 2yn'
loop_
_symmetry_equiv_pos_site_id
_symmetry_equiv_pos_as_xyz
1 x,y,z
2 -x,y,1/2-z
3 1/2+x,1/2+y,z
4 1/2-x,1/2+y,1/2-z
5 -x,-y,-z
6 x,-y,1/2+z
7 1/2-x,1/2-y,-z
8 1/2+x,1/2-y,1/2+z
_cell_length_a                   10.4213(7)
_cell_length_b                   8.4586(6)
_cell_length_c                   9.5290(7)
_cell_angle_alpha                90
_cell_angle_beta                 90.082(4)
_cell_angle_gamma                90
_cell_volume                     839.977
loop_
_atom_site_label
_atom_site_type_symbol
_atom_site_fract_x
_atom_site_fract_y
_atom_site_fract_z
U1 U 0.5000 0.252868(11) 0.2500
O1 O 0.7366(2) 0.2314(3) 0.2633(10)
O2 O 0.5928(2) 0.0145(2) 0.1519(2)
O3 O 0.5903(2) -0.1701(2) -0.01534(19)
O4 O 0.39969(19) 0.4860(2) 0.1444(2)
O5 O 0.3837(2) 0.6358(2) -0.0483(2)
C1 C 0.4377(3) 0.5363(2) 0.0280(3)
C2 C 0.5529(3) -0.0451(3) 0.0383(3)
H1 H 0.784(5) 0.158(6) 0.218(5)
H2 H 0.776(8) 0.260(7) 0.302(7)
U1D U 0.5000 -0.252868(11) -0.2500
U1D_2 U 0.5000 0.747132(11) -0.2500
O1A O 0.2634(2) 0.2314(3) 0.2367(10)
O2D O 0.4072(2) -0.0145(2) -0.1519(2)
O2A O 0.4072(2) 0.0145(2) 0.3481(2)
O3D O 0.4097(2) 0.1701(2) 0.01534(19)
O3E O 0.5903(2) 0.1701(2) 0.48466(19)
O4D O 0.60031(19) 0.5140(2) -0.1444(2)
O4A O 0.60031(19) 0.4860(2) 0.3556(2)
O5D O 0.6163(2) 0.3642(2) 0.0483(2)
O5E O 0.3837(2) 0.3642(2) 0.4517(2)
C1D C 0.5623(3) 0.4637(2) -0.0280(3)
C2D C 0.4471(3) 0.0451(3) -0.0383(3)
H1A H 0.216(5) 0.158(6) 0.282(5)
H2A H 0.224(8) 0.260(7) 0.198(7)
loop_
_geom_bond_atom_site_label_1
_geom_bond_atom_site_label_2
_geom_bond_site_symmetry_1
_geom_bond_site_symmetry_2
U1 O1 1_555 1_555
O1 H1 1_555 1_555
O2 U1 1_555 1_555
O3 C2 1_555 1_555
O4 U1 1_555 1_555
O5 C1 1_555 1_555
C1 O4 1_555 1_555
C2 O2 1_555 1_555
H2 O1 1_555 1_555
U1D O3 1_555 1_555
U1D_2 O5 1_555 1_555
O1A U1 1_555 1_555
O2D U1D 1_555 1_555
O2A U1 1_555 1_555
O3D U1 1_555 1_555
O3E U1 1_555 1_555
O4D U1D_2 1_555 1_555
O4A U1 1_555 1_555
O5D U1 1_555 1_555
O5E U1 1_555 1_555
C1D C1 1_555 1_555
C2D C2 1_555 1_555
H1A O1A 1_555 1_555
H2A O1A 1_555 1_555
O2D C2D 1_555 1_555
O3D C2D 1_555 1_555
O4D C1D 1_555 1_555
O5D C1D 1_555 1_555

#END
