
#######################################################################
#
#                 Cambridge Crystallographic Data Centre
#                                CCDC 
#
#######################################################################
#
# If this CIF has been generated from an entry in the Cambridge 
# Structural Database, then it will include bibliographic, chemical, 
# crystal, experimental, refinement or atomic coordinate data resulting 
# from the CCDC's data processing and validation procedures.
#
#######################################################################

data_ZZZTRQ01
_symmetry_cell_setting           monoclinic
_symmetry_space_group_name_H-M   'C 2/c'
_symmetry_Int_Tables_number      15
_space_group_name_Hall           '-C 2yn'
loop_
_symmetry_equiv_pos_site_id
_symmetry_equiv_pos_as_xyz
1 x,y,z
2 -x,y,1/2-z
3 1/2+x,1/2+y,z
4 1/2-x,1/2+y,1/2-z
5 -x,-y,-z
6 x,-y,1/2+z
7 1/2-x,1/2-y,-z
8 1/2+x,1/2-y,1/2+z
_cell_length_a                   10.4029(7)
_cell_length_b                   8.4756(6)
_cell_length_c                   9.7566(6)
_cell_angle_alpha                90
_cell_angle_beta                 90.041(3)
_cell_angle_gamma                90
_cell_volume                     860.247
loop_
_atom_site_label
_atom_site_type_symbol
_atom_site_fract_x
_atom_site_fract_y
_atom_site_fract_z
Th1 Th 0.5000 0.253613(10) 0.2500
O1 O 0.7404(2) 0.2260(3) 0.2662(7)
O2 O 0.59107(19) 0.0091(2) 0.1496(2)
O3 O 0.5883(2) -0.1726(2) -0.0154(2)
O4 O 0.39850(17) 0.4885(2) 0.1417(2)
O5 O 0.38044(19) 0.6291(3) -0.0522(2)
C1 C 0.4359(3) 0.5350(3) 0.0258(3)
C2 C 0.5518(3) -0.0471(3) 0.0377(3)
H1 H 0.776(4) 0.148(5) 0.218(5)
H2 H 0.802(9) 0.271(7) 0.308(9)
Th1D Th 0.5000 -0.253613(10) -0.2500
Th1D_2 Th 0.5000 0.746387(10) -0.2500
O1A O 0.2596(2) 0.2260(3) 0.2338(7)
O2D O 0.40893(19) -0.0091(2) -0.1496(2)
O2A O 0.40893(19) 0.0091(2) 0.3504(2)
O3D O 0.4117(2) 0.1726(2) 0.0154(2)
O3E O 0.5883(2) 0.1726(2) 0.4846(2)
O4D O 0.60150(17) 0.5115(2) -0.1417(2)
O4A O 0.60150(17) 0.4885(2) 0.3583(2)
O5D O 0.61956(19) 0.3709(3) 0.0522(2)
O5E O 0.38044(19) 0.3709(3) 0.4478(2)
C1D C 0.5641(3) 0.4650(3) -0.0258(3)
C2D C 0.4482(3) 0.0471(3) -0.0377(3)
H1A H 0.224(4) 0.148(5) 0.282(5)
H2A H 0.198(9) 0.271(7) 0.192(9)
loop_
_geom_bond_atom_site_label_1
_geom_bond_atom_site_label_2
_geom_bond_site_symmetry_1
_geom_bond_site_symmetry_2
Th1 O1 1_555 1_555
O1 H1 1_555 1_555
O2 Th1 1_555 1_555
O3 C2 1_555 1_555
O4 Th1 1_555 1_555
O5 C1 1_555 1_555
C1 O4 1_555 1_555
C2 O2 1_555 1_555
H2 O1 1_555 1_555
Th1D O3 1_555 1_555
Th1D_2 O5 1_555 1_555
O1A Th1 1_555 1_555
O2D Th1D 1_555 1_555
O2A Th1 1_555 1_555
O3D Th1 1_555 1_555
O3E Th1 1_555 1_555
O4D Th1D_2 1_555 1_555
O4A Th1 1_555 1_555
O5D Th1 1_555 1_555
O5E Th1 1_555 1_555
C1D C1 1_555 1_555
C2D C2 1_555 1_555
H1A O1A 1_555 1_555
H2A O1A 1_555 1_555
O2D C2D 1_555 1_555
O3D C2D 1_555 1_555
O4D C1D 1_555 1_555
O5D C1D 1_555 1_555

#END
