
#######################################################################
#
#                 Cambridge Crystallographic Data Centre
#                                CCDC 
#
#######################################################################
#
# If this CIF has been generated from an entry in the Cambridge 
# Structural Database, then it will include bibliographic, chemical, 
# crystal, experimental, refinement or atomic coordinate data resulting 
# from the CCDC's data processing and validation procedures.
#
#######################################################################

data_ZZZTLO01
_symmetry_cell_setting           orthorhombic
_symmetry_space_group_name_H-M   'C c c a'
_symmetry_Int_Tables_number      68
_space_group_name_Hall           '-C 2a 2bc'
loop_
_symmetry_equiv_pos_site_id
_symmetry_equiv_pos_as_xyz
1 x,y,z
2 -x,1/2-y,z
3 1/2+x,-y,1/2-z
4 1/2-x,1/2+y,1/2-z
5 1/2+x,1/2+y,z
6 1/2-x,-y,z
7 x,1/2-y,1/2-z
8 -x,y,1/2-z
9 -x,-y,-z
10 x,1/2+y,-z
11 1/2-x,y,1/2+z
12 1/2+x,1/2-y,1/2+z
13 1/2-x,1/2-y,-z
14 1/2+x,y,-z
15 -x,1/2+y,1/2+z
16 x,-y,1/2+z
_cell_length_a                   8.4560(17)
_cell_length_b                   10.426(2)
_cell_length_c                   9.525(2)
_cell_angle_alpha                90
_cell_angle_beta                 90
_cell_angle_gamma                90
_cell_volume                     839.745
loop_
_atom_site_label
_atom_site_type_symbol
_atom_site_fract_x
_atom_site_fract_y
_atom_site_fract_z
U1 U 0.0000 0.2500 0.2500
C1 C 0.2908(13) 0.3086(12) 0.4687(13)
O1 O 0.2354(9) 0.3464(8) 0.3516(8)
O2 O 0.4032(14) 0.3539(11) 0.5327(12)
O3 O 0.0000 0.0108(14) 0.2500
U1J U 0.5000 0.2500 0.7500
U1J_2 U 0.5000 0.2500 -0.2500
C1L C 0.2092(13) 0.1914(12) 0.5313(13)
C1J C 0.2092(13) 0.3086(12) -0.0313(13)
C1F C 0.2908(13) 0.1914(12) 0.0313(13)
O1L O 0.2646(9) 0.1536(8) 0.6484(8)
O1J O 0.2646(9) 0.3464(8) -0.1484(8)
O1F O 0.2354(9) 0.1536(8) 0.1484(8)
O1A O -0.2354(9) 0.1536(8) 0.3516(8)
O1G O -0.2354(9) 0.3464(8) 0.1484(8)
O2L O 0.0968(14) 0.1461(11) 0.4673(12)
O2J O 0.0968(14) 0.3539(11) 0.0327(12)
O2F O 0.4032(14) 0.1461(11) -0.0327(12)
O2K O -0.0968(14) 0.1461(11) 0.0327(12)
O2M O -0.0968(14) 0.3539(11) 0.4673(12)
O3A O 0.0000 0.4892(14) 0.2500
loop_
_geom_bond_atom_site_label_1
_geom_bond_atom_site_label_2
_geom_bond_site_symmetry_1
_geom_bond_site_symmetry_2
U1 O1 1_555 1_555
C1 O1 1_555 1_555
O2 C1 1_555 1_555
O3 U1 1_555 1_555
U1J O2 1_555 1_555
U1J_2 O1J 1_555 1_555
C1L C1 1_555 1_555
C1J C1F 1_555 1_555
C1F O1F 1_555 1_555
O1L U1J 1_555 1_555
O1J C1J 1_555 1_555
O1F U1 1_555 1_555
O1A U1 1_555 1_555
O1G U1 1_555 1_555
O2L U1 1_555 1_555
O2J U1 1_555 1_555
O2F U1J_2 1_555 1_555
O2K U1 1_555 1_555
O2M U1 1_555 1_555
O3A U1 1_555 1_555
C1L O1L 1_555 1_555
C1L O2L 1_555 1_555
C1J O2J 1_555 1_555
C1F O2F 1_555 1_555

#END
