
#######################################################################
#
#                 Cambridge Crystallographic Data Centre
#                                CCDC 
#
#######################################################################
#
# If this CIF has been generated from an entry in the Cambridge 
# Structural Database, then it will include bibliographic, chemical, 
# crystal, experimental, refinement or atomic coordinate data resulting 
# from the CCDC's data processing and validation procedures.
#
#######################################################################

data_ZZZUKQ02
_symmetry_cell_setting           monoclinic
_symmetry_space_group_name_H-M   'C 2/c'
_symmetry_Int_Tables_number      15
_space_group_name_Hall           '-C 2yn'
loop_
_symmetry_equiv_pos_site_id
_symmetry_equiv_pos_as_xyz
1 x,y,z
2 1/2+x,1/2+y,z
3 x,-y,1/2+z
4 1/2+x,1/2-y,1/2+z
5 -x,-y,-z
6 1/2-x,1/2-y,-z
7 -x,y,1/2-z
8 1/2-x,1/2+y,1/2-z
_cell_length_a                   7.3410(15)
_cell_length_b                   6.0120(12)
_cell_length_c                   8.267(2)
_cell_angle_alpha                90
_cell_angle_beta                 95.41(3)
_cell_angle_gamma                90
_cell_volume                     363.231
loop_
_atom_site_label
_atom_site_type_symbol
_atom_site_fract_x
_atom_site_fract_y
_atom_site_fract_z
O1 O 0.1667(3) 0.4573(4) 0.6644(3)
O2 O 0.0603(3) 0.7742(3) 0.5492(3)
C1 C 0.0661(4) 0.5670(4) 0.5620(4)
Sr1 Sr 0.0000 0.08633(5) 0.7500
Sr1A Sr 0.5000 0.58633(5) 0.7500
Sr1_2 Sr 0.0000 1.08633(5) 0.7500
Sr1B Sr 0.0000 0.91367(5) 0.2500
C1D C -0.0661(4) 0.4330(4) 0.4380(4)
O1A O -0.3333(3) -0.0427(4) 0.6644(3)
O1F O -0.1667(3) 0.4573(4) 0.8356(3)
O1G O 0.3333(3) -0.0427(4) 0.8356(3)
O2_2 O 0.0603(3) -0.2258(3) 0.5492(3)
O2B O 0.0603(3) 0.2258(3) 1.0492(3)
O2D O -0.0603(3) 0.2258(3) 0.4508(3)
O2F O -0.0603(3) -0.2258(3) 0.9508(3)
O1D O -0.1667(3) 0.5427(4) 0.3356(3)
Sr1C Sr -0.5000 0.41367(5) 0.2500
Sr1B_2 Sr 0.0000 -0.08633(5) 0.2500
loop_
_geom_bond_atom_site_label_1
_geom_bond_atom_site_label_2
_geom_bond_site_symmetry_1
_geom_bond_site_symmetry_2
O1 C1 1_555 1_555
O2 C1 1_555 1_555
C1 C1D 1_555 1_555
Sr1 O1 1_555 1_555
Sr1A O1 1_555 1_555
Sr1_2 O2 1_555 1_555
Sr1B O2 1_555 1_555
C1D O2D 1_555 1_555
O1A Sr1 1_555 1_555
O1F Sr1 1_555 1_555
O1G Sr1 1_555 1_555
O2_2 Sr1 1_555 1_555
O2B Sr1 1_555 1_555
O2D Sr1 1_555 1_555
O2F Sr1 1_555 1_555
O1D Sr1B 1_555 1_555
Sr1C O1D 1_555 1_555
Sr1B_2 O2_2 1_555 1_555
C1D O1D 1_555 1_555
O2D Sr1B_2 1_555 1_555

#END
