
#######################################################################
#
#                 Cambridge Crystallographic Data Centre
#                                CCDC 
#
#######################################################################
#
# If this CIF has been generated from an entry in the Cambridge 
# Structural Database, then it will include bibliographic, chemical, 
# crystal, experimental, refinement or atomic coordinate data resulting 
# from the CCDC's data processing and validation procedures.
#
#######################################################################

data_ZZZVAA01
_symmetry_cell_setting           monoclinic
_symmetry_space_group_name_H-M   'P 21/n'
_symmetry_Int_Tables_number      14
_space_group_name_Hall           '-P 2yn'
loop_
_symmetry_equiv_pos_site_id
_symmetry_equiv_pos_as_xyz
1 x,y,z
2 1/2-x,1/2+y,1/2-z
3 -x,-y,-z
4 1/2+x,1/2-y,1/2+z
_cell_length_a                   5.0157(1)
_cell_length_b                   8.0371(2)
_cell_length_c                   14.1498(4)
_cell_angle_alpha                90
_cell_angle_beta                 98.373(3)
_cell_angle_gamma                90
_cell_volume                     564.322
loop_
_atom_site_label
_atom_site_type_symbol
_atom_site_fract_x
_atom_site_fract_y
_atom_site_fract_z
Ag1 Ag 0.50000 0.50000 0.50000
O1 O 0.6337(8) 0.4368(5) 0.3649(2)
O2 O 0.3543(6) 0.2183(4) 0.3681(3)
N1 N 0.3108(6) 0.1646(5) 0.0747(3)
C1 C 0.4951(6) 0.2930(4) 0.2208(3)
C2 C 0.3107(7) 0.1879(5) 0.1706(3)
C3 C 0.4949(9) 0.2463(7) 0.02899(17)
C4 C 0.6793(6) 0.3514(5) 0.0793(3)
C5 C 0.6792(5) 0.3747(4) 0.1753(3)
C6 C 0.4950(10) 0.3190(7) 0.3278(5)
H1 H 0.1898 0.1342 0.2006
H2 H 0.4950 0.2310 -0.03401
H3 H 0.8003 0.4050 0.0492
H4 H 0.8001 0.4436 0.2083
Ag1A Ag 0.00000 0.00000 0.00000
Ag1A_2 Ag 1.00000 1.00000 1.00000
O1B O 0.3663(8) 0.5632(5) 0.6351(2)
O2B O 0.6457(6) 0.7817(4) 0.6319(3)
N1B N 0.6892(6) 0.8354(5) 0.9253(3)
N1A N 0.1892(6) 0.6646(5) 0.4253(3)
N1C N 0.8108(6) 0.3354(5) 0.5747(3)
C1B C 0.5049(6) 0.7070(4) 0.7792(3)
C2B C 0.6893(7) 0.8121(5) 0.8294(3)
C3B C 0.5051(9) 0.7537(7) 0.97101(17)
C4B C 0.3207(6) 0.6486(5) 0.9207(3)
C5B C 0.3208(5) 0.6253(4) 0.8247(3)
C6B C 0.5050(10) 0.6810(7) 0.6722(5)
H1B H 0.8102 0.8658 0.7994
H2B H 0.5050 0.7690 1.03401
H3B H 0.1997 0.5950 0.9508
H4B H 0.1999 0.5564 0.7917
loop_
_geom_bond_atom_site_label_1
_geom_bond_atom_site_label_2
_geom_bond_site_symmetry_1
_geom_bond_site_symmetry_2
Ag1 O1 1_555 1_555
O1 C6 1_555 1_555
O2 C6 1_555 1_555
N1 C2 1_555 1_555
C1 C2 1_555 1_555
C2 H1 1_555 1_555
C3 N1 1_555 1_555
C4 C3 1_555 1_555
C5 C1 1_555 1_555
C6 C1 1_555 1_555
H2 C3 1_555 1_555
H3 C4 1_555 1_555
H4 C5 1_555 1_555
Ag1A N1 1_555 1_555
Ag1A_2 N1B 1_555 1_555
O1B Ag1 1_555 1_555
O2B C6B 1_555 1_555
N1B C2B 1_555 1_555
N1A Ag1 1_555 1_555
N1C Ag1 1_555 1_555
C1B C2B 1_555 1_555
C2B H1B 1_555 1_555
C3B N1B 1_555 1_555
C4B C3B 1_555 1_555
C5B C1B 1_555 1_555
C6B O1B 1_555 1_555
H2B C3B 1_555 1_555
H3B C4B 1_555 1_555
H4B C5B 1_555 1_555
C4 C5 1_555 1_555
C1B C6B 1_555 1_555
C4B C5B 1_555 1_555

#END
