
#######################################################################
#
#                 Cambridge Crystallographic Data Centre
#                                CCDC 
#
#######################################################################
#
# If this CIF has been generated from an entry in the Cambridge 
# Structural Database, then it will include bibliographic, chemical, 
# crystal, experimental, refinement or atomic coordinate data resulting 
# from the CCDC's data processing and validation procedures.
#
#######################################################################

data_ZZZWCW01
_symmetry_cell_setting           trigonal
_symmetry_space_group_name_H-M   'P 32 2 1'
_symmetry_Int_Tables_number      154
_space_group_name_Hall           'P 32 2"'
loop_
_symmetry_equiv_pos_site_id
_symmetry_equiv_pos_as_xyz
1 x,y,z
2 -y,x-y,2/3+z
3 -x+y,-x,1/3+z
4 y,x,-z
5 x-y,-y,1/3-z
6 -x,-x+y,2/3-z
_cell_length_a                   5.498(5)
_cell_length_b                   5.498(5)
_cell_length_c                   47.28(5)
_cell_angle_alpha                90
_cell_angle_beta                 90
_cell_angle_gamma                120
_cell_volume                     1237.71
loop_
_atom_site_label
_atom_site_type_symbol
_atom_site_fract_x
_atom_site_fract_y
_atom_site_fract_z
Pb1 Pb 0.59680 0.00000 0.66617
O1 O 0.65000 0.44100 0.64990
O2 O 0.55500 -0.31000 0.62030
O3 O 0.21500 -0.03800 0.63580
O4 O 0.59700 0.14100 0.58810
O5 O 0.07400 -0.36100 0.58820
O6 O 0.22000 0.11200 0.52680
O7 O -0.29300 -0.40600 0.52600
C1 C 0.51400 0.47500 0.63000
C2 C 0.27000 0.19100 0.61770
C3 C 0.34800 0.15400 0.58780
C4 C 0.12000 -0.11300 0.57320
C5 C 0.20100 -0.11700 0.54260
C6 C -0.02300 -0.38400 0.52750
H1 H 0.09116 0.19686 0.61680
H2 H 0.37019 0.31940 0.57692
H3 H -0.06331 -0.11563 0.57331
H4 H 0.38667 -0.10604 0.54369
H5 H -0.03743 -0.54965 0.53774
H6 H 0.04666 -0.38048 0.50781
O1D O 0.20900 -0.44100 0.68343
O2D O 0.86500 0.31000 0.71303
O3D O 0.25300 0.03800 0.69753
C1_2 C 0.51400 -0.52500 0.63000
O2_2 O 0.55500 0.69000 0.62030
O1_2 O 0.65000 -0.55900 0.64990
C2_2 C 0.27000 -0.80900 0.61770
Pb1_2 Pb 0.59680 -1.00000 0.66617
O3_2 O 0.21500 -1.03800 0.63580
C3_2 C 0.34800 -0.84600 0.58780
H1_2 H 0.09116 -0.80314 0.61680
O4_2 O 0.59700 -0.85900 0.58810
C4_2 C 0.12000 -1.11300 0.57320
H2_2 H 0.37019 -0.68060 0.57692
O5_2 O 0.07400 -1.36100 0.58820
C5_2 C 0.20100 -1.11700 0.54260
H3_2 H -0.06331 -1.11563 0.57331
O6_2 O 0.22000 -0.88800 0.52680
C6_2 C -0.02300 -1.38400 0.52750
H4_2 H 0.38667 -1.10604 0.54369
O7_2 O -0.29300 -1.40600 0.52600
H5_2 H -0.03743 -1.54965 0.53774
H6_2 H 0.04666 -1.38048 0.50781
Pb1_3 Pb 0.59680 1.00000 0.66617
loop_
_geom_bond_atom_site_label_1
_geom_bond_atom_site_label_2
_geom_bond_site_symmetry_1
_geom_bond_site_symmetry_2
Pb1 O1 1_555 1_555
O1 C1 1_555 1_555
O2 Pb1 1_555 1_555
O3 Pb1 1_555 1_555
O4 C3 1_555 1_555
O5 C4 1_555 1_555
O6 C5 1_555 1_555
O7 C6 1_555 1_555
C1 C2 1_555 1_555
C2 O3 1_555 1_555
C3 C2 1_555 1_555
C4 C3 1_555 1_555
C5 C4 1_555 1_555
C6 C5 1_555 1_555
H1 C2 1_555 1_555
H2 C3 1_555 1_555
H3 C4 1_555 1_555
H4 C5 1_555 1_555
H5 C6 1_555 1_555
H6 C6 1_555 1_555
O1D Pb1 1_555 1_555
O2D Pb1 1_555 1_555
O3D Pb1 1_555 1_555
C1_2 O2 1_555 1_555
O2_2 C1 1_555 1_555
O1_2 C1_2 1_555 1_555
C2_2 C1_2 1_555 1_555
Pb1_2 O1_2 1_555 1_555
O3_2 C2_2 1_555 1_555
C3_2 C2_2 1_555 1_555
H1_2 C2_2 1_555 1_555
O4_2 C3_2 1_555 1_555
C4_2 C3_2 1_555 1_555
H2_2 C3_2 1_555 1_555
O5_2 C4_2 1_555 1_555
C5_2 C4_2 1_555 1_555
H3_2 C4_2 1_555 1_555
O6_2 C5_2 1_555 1_555
C6_2 C5_2 1_555 1_555
H4_2 C5_2 1_555 1_555
O7_2 C6_2 1_555 1_555
H5_2 C6_2 1_555 1_555
H6_2 C6_2 1_555 1_555
Pb1_3 O2_2 1_555 1_555
Pb1_2 O3_2 1_555 1_555

#END
